New Line.Feeder1.1      Bus1=Main_Busbar Bus2=1_1       Length=1    units=m Linecode=Line_MV_240
New Line.Feeder1.2      Bus1=1_1         Bus2=1_2       Length=1    units=m Linecode=Line_MV_240
New Line.Feeder1.3      Bus1=1_2         Bus2=1_3       Length=1    units=m Linecode=Line_MV_240
New Line.Feeder1.4      Bus1=1_3         Bus2=1_4       Length=1    units=m Linecode=Line_MV_240
New Line.Feeder1.5      Bus1=1_4         Bus2=1_5       Length=1    units=m Linecode=Line_MV_240
New Line.Feeder1.6      Bus1=1_5         Bus2=1_6       Length=1    units=m Linecode=Line_MV_240
New Line.Feeder1.7      Bus1=1_6         Bus2=1_7       Length=1    units=m Linecode=Line_MV_240
New Line.Feeder1.8      Bus1=1_7         Bus2=1_8       Length=1    units=m Linecode=Line_MV_240
New Line.Feeder1.9      Bus1=1_8         Bus2=1_9       Length=1    units=m Linecode=Line_MV_240
New Line.Feeder1.10     Bus1=1_9         Bus2=1_10      Length=1    units=m Linecode=Line_MV_240
New Line.Feeder1.11	Bus1=1_10       Bus2=1_11	Length=1    units=m Linecode=Line_MV_240
New Line.Feeder1.12	Bus1=1_11	Bus2=1_12	Length=1    units=m Linecode=Line_MV_240
New Line.Feeder1.13	Bus1=1_12	Bus2=1_13	Length=1	units=m	Linecode=Line_MV_240
New Line.Feeder1.14	Bus1=1_13	Bus2=1_14	Length=1	units=m	Linecode=Line_MV_240
New Line.Feeder1.15	Bus1=1_14	Bus2=1_15	Length=1	units=m	Linecode=Line_MV_240
New Line.Feeder1.16	Bus1=1_15	Bus2=1_16	Length=1	units=m	Linecode=Line_MV_240
New Line.Feeder1.17	Bus1=1_16	Bus2=1_17	Length=1	units=m	Linecode=Line_MV_240
New Line.Feeder1.18	Bus1=1_17	Bus2=1_18	Length=1	units=m	Linecode=Line_MV_240
New Line.Feeder1.19	Bus1=1_18	Bus2=1_19	Length=1	units=m	Linecode=Line_MV_240
New Line.Feeder1.20	Bus1=1_19	Bus2=1_20	Length=1	units=m	Linecode=Line_MV_240
New Line.Feeder1.21	Bus1=1_20	Bus2=1_21	Length=1	units=m	Linecode=Line_MV_240
New Line.Feeder1.22	Bus1=1_21	Bus2=1_22	Length=1	units=m	Linecode=Line_MV_240
New Line.Feeder1.23	Bus1=1_22	Bus2=1_23	Length=1	units=m	Linecode=Line_MV_240
New Line.Feeder1.24	Bus1=1_23	Bus2=1_24	Length=1	units=m	Linecode=Line_MV_240
New Line.Feeder1.25	Bus1=1_24	Bus2=1_25	Length=1	units=m	Linecode=Line_MV_240
New Line.Feeder1.26	Bus1=1_25	Bus2=1_26	Length=1	units=m	Linecode=Line_MV_240
New Line.Feeder1.27	Bus1=1_26	Bus2=1_27	Length=1	units=m	Linecode=Line_MV_240
New Line.Feeder1.28	Bus1=1_27	Bus2=1_28	Length=1	units=m	Linecode=Line_MV_240
New Line.Feeder1.29	Bus1=1_28	Bus2=1_29	Length=1	units=m	Linecode=Line_MV_240
New Line.Feeder1.30	Bus1=1_29	Bus2=1_30	Length=1	units=m	Linecode=Line_MV_240

New Line.Feeder1.31	Bus1=1_30	Bus2=1_31	Length=1	units=m	Linecode=Line_MV_240
New Line.Feeder1.32	Bus1=1_31	Bus2=1_32	Length=1	units=m	Linecode=Line_MV_240
New Line.Feeder1.33	Bus1=1_32	Bus2=1_33	Length=1	units=m	Linecode=Line_MV_240
New Line.Feeder1.34	Bus1=1_33	Bus2=1_34	Length=1	units=m	Linecode=Line_MV_240
New Line.Feeder1.35	Bus1=1_34	Bus2=1_35	Length=1	units=m	Linecode=Line_MV_240

New Line.Feeder1.36	Bus1=1_35	Bus2=1_36	Length=1	units=m	Linecode=Line_MV_240

New Line.Lateral1_start_1 Bus1=1_35	Bus2=1_37	Length=1	units=m	Linecode=Line_MV_120
New Line.Lateral1.38	Bus1=1_37	Bus2=1_38	Length=1	units=m	Linecode=Line_MV_120
New Line.Lateral1.39	Bus1=1_38	Bus2=1_39	Length=1	units=m	Linecode=Line_MV_120
New Line.Lateral1.40	Bus1=1_39	Bus2=1_40	Length=1	units=m	Linecode=Line_MV_120
New Line.Lateral1.41	Bus1=1_40	Bus2=1_41	Length=1	units=m	Linecode=Line_MV_120
New Line.Lateral1.42	Bus1=1_41	Bus2=1_42	Length=1	units=m	Linecode=Line_MV_120
New Line.Lateral1.43	Bus1=1_42	Bus2=1_43	Length=1	units=m	Linecode=Line_MV_120
New Line.Lateral1.44	Bus1=1_43	Bus2=1_44	Length=1	units=m	Linecode=Line_MV_120
New Line.Lateral1.45	Bus1=1_44	Bus2=1_45	Length=1	units=m	Linecode=Line_MV_120
New Line.Lateral1.46	Bus1=1_45	Bus2=1_46	Length=1	units=m	Linecode=Line_MV_120
New Line.Lateral1.47	Bus1=1_46	Bus2=1_47	Length=1	units=m	Linecode=Line_MV_120
New Line.Lateral1.48	Bus1=1_47	Bus2=1_48	Length=1	units=m	Linecode=Line_MV_120
New Line.Lateral1.49	Bus1=1_48	Bus2=1_49	Length=1	units=m	Linecode=Line_MV_120
New Line.Lateral1.50	Bus1=1_49	Bus2=1_50	Length=1	units=m	Linecode=Line_MV_120
New Line.Lateral1.51	Bus1=1_50	Bus2=1_51	Length=1	units=m	Linecode=Line_MV_120
New Line.Lateral1.52	Bus1=1_51	Bus2=1_52	Length=1	units=m	Linecode=Line_MV_120
New Line.Lateral1.53	Bus1=1_52	Bus2=1_53	Length=1	units=m	Linecode=Line_MV_120
New Line.Lateral1.54	Bus1=1_53	Bus2=1_54	Length=1	units=m	Linecode=Line_MV_120
New Line.Lateral1.55	Bus1=1_54	Bus2=1_55	Length=1	units=m	Linecode=Line_MV_120
New Line.Lateral1.56	Bus1=1_55	Bus2=1_56	Length=1	units=m	Linecode=Line_MV_120
New Line.Lateral1.57	Bus1=1_56	Bus2=1_57	Length=1	units=m	Linecode=Line_MV_120
New Line.Lateral1.58	Bus1=1_57	Bus2=1_58	Length=1	units=m	Linecode=Line_MV_120
New Line.Lateral1.59	Bus1=1_58	Bus2=1_59	Length=1	units=m	Linecode=Line_MV_120
New Line.Lateral1.60	Bus1=1_59	Bus2=1_60	Length=1	units=m	Linecode=Line_MV_120
New Line.Lateral1.61	Bus1=1_60       Bus2=1_61	Length=1        units=m Linecode=Line_MV_120
New Line.Lateral1.62	Bus1=1_61	Bus2=1_62	Length=1	units=m	Linecode=Line_MV_120
New Line.Lateral1.63	Bus1=1_62	Bus2=1_63	Length=1	units=m	Linecode=Line_MV_120
New Line.Lateral1.64	Bus1=1_63	Bus2=1_64	Length=1	units=m	Linecode=Line_MV_120
New Line.Lateral1.65	Bus1=1_64	Bus2=1_65	Length=1	units=m	Linecode=Line_MV_120
New Line.Lateral1.66	Bus1=1_65	Bus2=1_66	Length=1	units=m	Linecode=Line_MV_120
New Line.Lateral1.67	Bus1=1_66	Bus2=1_67	Length=1	units=m	Linecode=Line_MV_120
New Line.Lateral1.68	Bus1=1_67	Bus2=1_68	Length=1	units=m	Linecode=Line_MV_120
New Line.Lateral1.69	Bus1=1_68	Bus2=1_69	Length=1	units=m	Linecode=Line_MV_120
New Line.Lateral1.70	Bus1=1_69	Bus2=1_70	Length=1	units=m	Linecode=Line_MV_120
New Line.Lateral1.71	Bus1=1_70	Bus2=1_71	Length=1	units=m	Linecode=Line_MV_120
New Line.Lateral1.72	Bus1=1_71	Bus2=1_72	Length=1	units=m	Linecode=Line_MV_120
New Line.Lateral1.73	Bus1=1_72	Bus2=1_73	Length=1	units=m	Linecode=Line_MV_120
New Line.Lateral1.74	Bus1=1_73	Bus2=1_74	Length=1	units=m	Linecode=Line_MV_120
New Line.Lateral1.75	Bus1=1_74	Bus2=1_75	Length=1	units=m	Linecode=Line_MV_120
New Line.Lateral1.76	Bus1=1_75	Bus2=1_76	Length=1	units=m	Linecode=Line_MV_120
New Line.Lateral1.77	Bus1=1_76	Bus2=1_77	Length=1	units=m	Linecode=Line_MV_120
New Line.Lateral1.78	Bus1=1_77	Bus2=1_78	Length=1	units=m	Linecode=Line_MV_120
New Line.Lateral1.79	Bus1=1_78	Bus2=1_79	Length=1	units=m	Linecode=Line_MV_120
New Line.Lateral1.80	Bus1=1_79	Bus2=1_80	Length=1	units=m	Linecode=Line_MV_120
New Line.Lateral1.81	Bus1=1_80	Bus2=1_81	Length=1	units=m	Linecode=Line_MV_120
New Line.Lateral1.82	Bus1=1_81	Bus2=1_82	Length=1	units=m	Linecode=Line_MV_120
New Line.Lateral1.83	Bus1=1_82	Bus2=1_83	Length=1	units=m	Linecode=Line_MV_120
New Line.Lateral1.84	Bus1=1_83	Bus2=1_84	Length=1	units=m	Linecode=Line_MV_120
New Line.Lateral1.85	Bus1=1_84	Bus2=1_85	Length=1	units=m	Linecode=Line_MV_120
New Line.Lateral1.86	Bus1=1_85	Bus2=1_86	Length=1	units=m	Linecode=Line_MV_120
New Line.Lateral1.87	Bus1=1_86	Bus2=1_87	Length=1	units=m	Linecode=Line_MV_120
New Line.Lateral1.88	Bus1=1_87	Bus2=1_88	Length=1	units=m	Linecode=Line_MV_120
New Line.Lateral1.89	Bus1=1_88	Bus2=1_89	Length=1	units=m	Linecode=Line_MV_120
New Line.Lateral1.90	Bus1=1_89	Bus2=1_90	Length=1	units=m	Linecode=Line_MV_120 
New Line.Lateral1.91	Bus1=1_90       Bus2=1_91	Length=1        units=m Linecode=Line_MV_120
New Line.Lateral1.92	Bus1=1_91	Bus2=1_92	Length=1	units=m	Linecode=Line_MV_120
New Line.Lateral1.93	Bus1=1_92	Bus2=1_93	Length=1	units=m	Linecode=Line_MV_120
New Line.Lateral1.94	Bus1=1_93	Bus2=1_94	Length=1	units=m	Linecode=Line_MV_120
New Line.Lateral1.95	Bus1=1_94	Bus2=1_95	Length=1	units=m	Linecode=Line_MV_120
New Line.Lateral1.96	Bus1=1_95	Bus2=1_96	Length=1	units=m	Linecode=Line_MV_120
New Line.Lateral1.97	Bus1=1_96       Bus2=1_97	Length=1	units=m	Linecode=Line_MV_120
New Line.Lateral1.98	Bus1=1_97       Bus2=1_98	Length=1	units=m	Linecode=Line_MV_120
New Line.Lateral1.99	Bus1=1_98       Bus2=1_99       Length=1	units=m	Linecode=Line_MV_120
New Line.Lateral1.100	Bus1=1_99       Bus2=1_100      Length=1        units=m Linecode=Line_MV_120
New Line.Lateral1.101	Bus1=1_100      Bus2=1_101      Length=1        units=m Linecode=Line_MV_120
New Line.Lateral1.102	Bus1=1_101      Bus2=1_102      Length=1        units=m Linecode=Line_MV_120
New Line.Lateral1.103	Bus1=1_102      Bus2=1_103      Length=1        units=m Linecode=Line_MV_120
New Line.Lateral1.104	Bus1=1_103      Bus2=1_104      Length=1        units=m Linecode=Line_MV_120
New Line.Lateral1.105	Bus1=1_104      Bus2=1_105      Length=1        units=m Linecode=Line_MV_120
New Line.Lateral1.106	Bus1=1_105 Bus2=1_106 Length=1 units=m Linecode=Line_MV_120
New Line.Lateral1.107	Bus1=1_106 Bus2=1_107 Length=1  units=m Linecode=Line_MV_120
New Line.Lateral1.108	Bus1=1_107 Bus2=1_108 Length=1	units=m	Linecode=Line_MV_120
New Line.Lateral1.109	Bus1=1_108 Bus2=1_109 Length=1	units=m	Linecode=Line_MV_120
New Line.Lateral1.110	Bus1=1_109 Bus2=1_110 Length=1	units=m	Linecode=Line_MV_120
New Line.Lateral1.111	Bus1=1_110 Bus2=1_111 Length=1	units=m	Linecode=Line_MV_120
New Line.Lateral1.112	Bus1=1_111 Bus2=1_112 Length=1	units=m	Linecode=Line_MV_120
New Line.Lateral1.113	Bus1=1_112 Bus2=1_113 Length=1	units=m	Linecode=Line_MV_120
New Line.Lateral1.114	Bus1=1_113 Bus2=1_114 Length=1	units=m	Linecode=Line_MV_120
New Line.Lateral1.115	Bus1=1_114 Bus2=1_115 Length=1	units=m	Linecode=Line_MV_120
New Line.Lateral1.116	Bus1=1_115 Bus2=1_116 Length=1	units=m	Linecode=Line_MV_120
New Line.Lateral1.117	Bus1=1_116 Bus2=1_117 Length=1	units=m	Linecode=Line_MV_120
New Line.Lateral1.118	Bus1=1_117 Bus2=1_118 Length=1	units=m	Linecode=Line_MV_120
New Line.Lateral1.119	Bus1=1_118 Bus2=1_119 Length=1	units=m	Linecode=Line_MV_120
New Line.Lateral1.120	Bus1=1_119 Bus2=1_120 Length=1	units=m	Linecode=Line_MV_120
New Line.Lateral1.121	Bus1=1_120 Bus2=1_121 Length=1  units=m Linecode=Line_MV_120
New Line.Lateral1.122	Bus1=1_121 Bus2=1_122 Length=1	units=m	Linecode=Line_MV_120
New Line.Lateral1.123	Bus1=1_122 Bus2=1_123 Length=1	units=m	Linecode=Line_MV_120
New Line.Lateral1.124	Bus1=1_123 Bus2=1_124 Length=1	units=m	Linecode=Line_MV_120
New Line.Lateral1.125	Bus1=1_124 Bus2=1_125 Length=1	units=m	Linecode=Line_MV_120
New Line.Lateral1.126	Bus1=1_125 Bus2=1_126 Length=1	units=m	Linecode=Line_MV_120
New Line.Lateral1.127	Bus1=1_126 Bus2=1_127 Length=1	units=m	Linecode=Line_MV_120
New Line.Lateral1.128	Bus1=1_127 Bus2=1_128 Length=1	units=m	Linecode=Line_MV_120
New Line.Lateral1.129	Bus1=1_128 Bus2=1_129 Length=1	units=m	Linecode=Line_MV_120
New Line.Lateral1.130	Bus1=1_129 Bus2=1_130 Length=1	units=m	Linecode=Line_MV_120
New Line.Lateral1.131	Bus1=1_130 Bus2=1_131 Length=1	units=m	Linecode=Line_MV_120
New Line.Lateral1.132	Bus1=1_131 Bus2=1_132 Length=1	units=m	Linecode=Line_MV_120
New Line.Lateral1.133	Bus1=1_132 Bus2=1_133 Length=1	units=m	Linecode=Line_MV_120
New Line.Lateral1.134	Bus1=1_133 Bus2=1_134 Length=1	units=m	Linecode=Line_MV_120
New Line.Lateral1.135	Bus1=1_134 Bus2=1_135 Length=1	units=m	Linecode=Line_MV_120
New Line.Lateral1.136	Bus1=1_135 Bus2=1_136 Length=1	units=m	Linecode=Line_MV_120
New Line.Lateral1.137	Bus1=1_136 Bus2=1_137 Length=1	units=m	Linecode=Line_MV_120
New Line.Lateral1.138	Bus1=1_137 Bus2=1_138 Length=1	units=m	Linecode=Line_MV_120
New Line.Lateral1.139	Bus1=1_138 Bus2=1_139 Length=1	units=m	Linecode=Line_MV_120
New Line.Lateral1.140	Bus1=1_139 Bus2=1_140 Length=1	units=m	Linecode=Line_MV_120
New Line.Lateral1.141	Bus1=1_140 Bus2=1_141 Length=1	units=m	Linecode=Line_MV_120
New Line.Lateral1.142	Bus1=1_141 Bus2=1_142 Length=1	units=m	Linecode=Line_MV_120
New Line.Lateral1.143	Bus1=1_142 Bus2=1_143 Length=1	units=m	Linecode=Line_MV_120
New Line.Lateral1.144	Bus1=1_143 Bus2=1_144 Length=1	units=m	Linecode=Line_MV_120
New Line.Lateral1.145	Bus1=1_144 Bus2=1_145 Length=1	units=m	Linecode=Line_MV_120
New Line.Lateral1.146	Bus1=1_145 Bus2=1_146 Length=1	units=m	Linecode=Line_MV_120
New Line.Lateral1.147	Bus1=1_146 Bus2=1_147 Length=1	units=m	Linecode=Line_MV_120
New Line.Lateral1.148	Bus1=1_147 Bus2=1_148 Length=1	units=m	Linecode=Line_MV_120
New Line.Lateral1.149	Bus1=1_148 Bus2=1_149 Length=1	units=m	Linecode=Line_MV_120
New Line.Lateral1.150	Bus1=1_149 Bus2=1_150 Length=1	units=m	Linecode=Line_MV_120
New Line.Lateral1.151	Bus1=1_150 Bus2=1_151 Length=1  units=m Linecode=Line_MV_120
New Line.Lateral1.152	Bus1=1_151 Bus2=1_152 Length=1	units=m	Linecode=Line_MV_120
New Line.Lateral1.153	Bus1=1_152 Bus2=1_153 Length=1	units=m	Linecode=Line_MV_120
New Line.Lateral1.154	Bus1=1_153 Bus2=1_154 Length=1	units=m	Linecode=Line_MV_120
New Line.Lateral1.155	Bus1=1_154 Bus2=1_155 Length=1	units=m	Linecode=Line_MV_120
New Line.Lateral1.156	Bus1=1_155 Bus2=1_156 Length=1	units=m	Linecode=Line_MV_120
New Line.Lateral1.157	Bus1=1_156 Bus2=1_157 Length=1	units=m	Linecode=Line_MV_120
New Line.Lateral1.158	Bus1=1_157 Bus2=1_158 Length=1	units=m	Linecode=Line_MV_120
New Line.Lateral1.159	Bus1=1_158 Bus2=1_159 Length=1	units=m	Linecode=Line_MV_120
New Line.Lateral1.160	Bus1=1_159 Bus2=1_160 Length=1	units=m	Linecode=Line_MV_120
New Line.Lateral1.161	Bus1=1_160 Bus2=1_161 Length=1	units=m	Linecode=Line_MV_120
New Line.Lateral1.162	Bus1=1_161 Bus2=1_162 Length=1	units=m	Linecode=Line_MV_120
New Line.Lateral1.163	Bus1=1_162 Bus2=1_163 Length=1	units=m	Linecode=Line_MV_120
New Line.Lateral1.164	Bus1=1_163 Bus2=1_164 Length=1	units=m	Linecode=Line_MV_120
New Line.Lateral1.165	Bus1=1_164 Bus2=1_165 Length=1	units=m	Linecode=Line_MV_120
New Line.Lateral1.166	Bus1=1_165 Bus2=1_166 Length=1	units=m	Linecode=Line_MV_120
New Line.Lateral1.167	Bus1=1_166 Bus2=1_167 Length=1	units=m	Linecode=Line_MV_120
New Line.Lateral1.168	Bus1=1_167 Bus2=1_168 Length=1	units=m	Linecode=Line_MV_120
New Line.Lateral1.169	Bus1=1_168 Bus2=1_169 Length=1	units=m	Linecode=Line_MV_120
New Line.Lateral1.170	Bus1=1_169 Bus2=1_170 Length=1	units=m	Linecode=Line_MV_120
New Line.Lateral1.171	Bus1=1_170 Bus2=1_171 Length=1	units=m	Linecode=Line_MV_120
New Line.Lateral1.172	Bus1=1_171 Bus2=1_172 Length=1	units=m	Linecode=Line_MV_120
New Line.Lateral1_end_1 Bus1=1_172 Bus2=1_173 Length=1	units=m	Linecode=Line_MV_120



New Line.Feeder1.174 Bus1=1_36 Bus2=1_174  Length=1     units=m	Linecode=Line_MV_240
New Line.Feeder1.175 Bus1=1_174 Bus2=1_175 Length=1	units=m	Linecode=Line_MV_240

New Line.Feeder1.176 Bus1=1_175 Bus2=1_176 Length=1	units=m	Linecode=Line_MV_240
New Line.Feeder1.177 Bus1=1_175 Bus2=1_177 units=m Linecode=Line_MV_240 Length=1
New Line.Feeder1.178 Bus1=1_177 Bus2=1_178 units=m Linecode=Line_MV_240 Length=1 
New Line.Feeder1.179 Bus1=1_178 Bus2=1_179 units=m Linecode=Line_MV_240 Length=1
New Line.Feeder1.180 Bus1=1_179 Bus2=1_180 units=m Linecode=Line_MV_240 Length=1 
New Line.Feeder1.181 Bus1=1_180 Bus2=1_181 units=m Linecode=Line_MV_240 Length=1 
New Line.Feeder1.182 Bus1=1_181 Bus2=1_182 units=m Linecode=Line_MV_240 Length=1 
New Line.Feeder1.183 Bus1=1_182 Bus2=1_183 units=m Linecode=Line_MV_240 Length=1 
New Line.Feeder1.184 Bus1=1_183 Bus2=1_184 units=m Linecode=Line_MV_240 Length=1 
New Line.Feeder1.185 Bus1=1_184 Bus2=1_185 units=m Linecode=Line_MV_240 Length=1 
New Line.Feeder1.186 Bus1=1_185 Bus2=1_186 units=m Linecode=Line_MV_240 Length=1 
New Line.Feeder1.187 Bus1=1_186 Bus2=1_187 units=m Linecode=Line_MV_240 Length=1 
New Line.Feeder1.188 Bus1=1_187 Bus2=1_188 units=m Linecode=Line_MV_240 Length=1 
New Line.Feeder1.189 Bus1=1_188 Bus2=1_189 units=m Linecode=Line_MV_240 Length=1 
New Line.Feeder1.190 Bus1=1_189 Bus2=1_190 units=m Linecode=Line_MV_240 Length=1 
New Line.Feeder1.191 Bus1=1_190 Bus2=1_191 units=m Linecode=Line_MV_240 Length=1 
New Line.Feeder1.192 Bus1=1_191 Bus2=1_192 units=m Linecode=Line_MV_240 Length=1 
New Line.Feeder1.193 Bus1=1_192 Bus2=1_193 units=m Linecode=Line_MV_240 Length=1 
New Line.Feeder1.194 Bus1=1_193 Bus2=1_194 units=m Linecode=Line_MV_240 Length=1 
New Line.Feeder1.195 Bus1=1_194 Bus2=1_195 units=m Linecode=Line_MV_240 Length=1 
New Line.Feeder1.196 Bus1=1_195 Bus2=1_196 units=m Linecode=Line_MV_240 Length=1 
New Line.Feeder1.197 Bus1=1_196 Bus2=1_197 units=m Linecode=Line_MV_240 Length=1 
New Line.Feeder1.198 Bus1=1_197 Bus2=1_198 units=m Linecode=Line_MV_240 Length=1 
New Line.Feeder1.199 Bus1=1_198 Bus2=1_199 units=m Linecode=Line_MV_240 Length=1 
New Line.Feeder1.200 Bus1=1_199 Bus2=1_200 units=m Linecode=Line_MV_240 Length=1 
New Line.Feeder1.201 Bus1=1_200 Bus2=1_201 units=m Linecode=Line_MV_240 Length=1 
New Line.Feeder1.202 Bus1=1_201 Bus2=1_202 units=m Linecode=Line_MV_240 Length=1 
New Line.Feeder1.203 Bus1=1_202 Bus2=1_203 units=m Linecode=Line_MV_240 Length=1 
New Line.Feeder1.204 Bus1=1_203 Bus2=1_204 units=m Linecode=Line_MV_240 Length=1 
New Line.Feeder1.205 Bus1=1_204 Bus2=1_205 units=m Linecode=Line_MV_240 Length=1 
New Line.Feeder1.206 Bus1=1_205 Bus2=1_206 units=m Linecode=Line_MV_240 Length=1 
New Line.Feeder1.207 Bus1=1_206 Bus2=1_207 units=m Linecode=Line_MV_240 Length=1 
New Line.Feeder1.208 Bus1=1_207 Bus2=1_208 units=m Linecode=Line_MV_240 Length=1 
New Line.Feeder1.209 Bus1=1_208 Bus2=1_209 units=m Linecode=Line_MV_240 Length=1 
New Line.Feeder1.210 Bus1=1_209 Bus2=1_210 units=m Linecode=Line_MV_240 Length=1 
New Line.Feeder1.211 Bus1=1_210 Bus2=1_211 units=m Linecode=Line_MV_240 Length=1 
New Line.Feeder1.212 Bus1=1_211 Bus2=1_212 units=m Linecode=Line_MV_240 Length=1 
New Line.Feeder1.213 Bus1=1_212 Bus2=1_213 units=m Linecode=Line_MV_240 Length=1 
New Line.Feeder1.214 Bus1=1_213 Bus2=1_214 units=m Linecode=Line_MV_240 Length=1 
New Line.Feeder1.215 Bus1=1_214 Bus2=1_215 units=m Linecode=Line_MV_240 Length=1 
New Line.Feeder1.216 Bus1=1_215 Bus2=1_216 units=m Linecode=Line_MV_240 Length=1 
New Line.Feeder1.217 Bus1=1_216 Bus2=1_217 units=m Linecode=Line_MV_240 Length=1 
New Line.Feeder1.218 Bus1=1_217 Bus2=1_218 units=m Linecode=Line_MV_240 Length=1 
New Line.Feeder1.219 Bus1=1_218 Bus2=1_219 units=m Linecode=Line_MV_240 Length=1 
New Line.Feeder1.220 Bus1=1_219 Bus2=1_220 units=m Linecode=Line_MV_240 Length=1 
New Line.Feeder1.221 Bus1=1_220 Bus2=1_221 units=m Linecode=Line_MV_240 Length=1 
New Line.Feeder1.222 Bus1=1_221 Bus2=1_222 units=m Linecode=Line_MV_240 Length=1 
New Line.Feeder1.223 Bus1=1_222 Bus2=1_223 units=m Linecode=Line_MV_240 Length=1 
New Line.Feeder1.224 Bus1=1_223 Bus2=1_224 units=m Linecode=Line_MV_240 Length=1 
New Line.Feeder1.225 Bus1=1_224 Bus2=1_225 units=m Linecode=Line_MV_240 Length=1
New Line.Feeder1.226 Bus1=1_225 Bus2=1_226 units=m Linecode=Line_MV_240 Length=1 
New Line.Feeder1.227 Bus1=1_226 Bus2=1_227 units=m Linecode=Line_MV_240 Length=1 
New Line.Feeder1.228 Bus1=1_227 Bus2=1_228 units=m Linecode=Line_MV_240 Length=1 
New Line.Feeder1.229 Bus1=1_228 Bus2=1_229 units=m Linecode=Line_MV_240 Length=1 
New Line.Feeder1.230 Bus1=1_229 Bus2=1_230 units=m Linecode=Line_MV_240 Length=1 
New Line.Feeder1.231 Bus1=1_230 Bus2=1_231 units=m Linecode=Line_MV_240 Length=1 
New Line.Feeder1.232 Bus1=1_231 Bus2=1_232 units=m Linecode=Line_MV_240 Length=1 
New Line.Feeder1.233 Bus1=1_232 Bus2=1_233 units=m Linecode=Line_MV_240 Length=1 
New Line.Feeder1.234 Bus1=1_233 Bus2=1_234 units=m Linecode=Line_MV_240 Length=1 
New Line.Feeder1.235 Bus1=1_234 Bus2=1_235 units=m Linecode=Line_MV_240 Length=1 
New Line.Feeder1.236 Bus1=1_235 Bus2=1_236 units=m Linecode=Line_MV_240 Length=1 
New Line.Feeder1.237 Bus1=1_236 Bus2=1_237 units=m Linecode=Line_MV_240 Length=1 
New Line.Feeder1.238 Bus1=1_237 Bus2=1_238 units=m Linecode=Line_MV_240 Length=1 
New Line.Feeder1.239 Bus1=1_238 Bus2=1_239 units=m Linecode=Line_MV_240 Length=1 
New Line.Feeder1.240 Bus1=1_239 Bus2=1_240 units=m Linecode=Line_MV_240 Length=1 
New Line.Feeder1.241 Bus1=1_240 Bus2=1_241 units=m Linecode=Line_MV_240 Length=1 
New Line.Feeder1.242 Bus1=1_241 Bus2=1_242 units=m Linecode=Line_MV_240 Length=1 
New Line.Feeder1.243 Bus1=1_242 Bus2=1_243 units=m Linecode=Line_MV_240 Length=1



New Line.Lateral1_start_2 Bus1=1_242 Bus2=1_244 units=m Linecode=Line_MV_120 Length=1 
New Line.Lateral1.245 Bus1=1_244 Bus2=1_245 units=m Linecode=Line_MV_120 Length=1 
New Line.Lateral1.246 Bus1=1_245 Bus2=1_246 units=m Linecode=Line_MV_120 Length=1
New Line.Lateral1.247 Bus1=1_246 Bus2=1_247 units=m Linecode=Line_MV_120 Length=1 
New Line.Lateral1.248 Bus1=1_247 Bus2=1_248 units=m Linecode=Line_MV_120 Length=1 
New Line.Lateral1.249 Bus1=1_248 Bus2=1_249 units=m Linecode=Line_MV_120 Length=1 
New Line.Lateral1.250 Bus1=1_249 Bus2=1_250 units=m Linecode=Line_MV_120 Length=1 
New Line.Lateral1.251 Bus1=1_250 Bus2=1_251 units=m Linecode=Line_MV_120 Length=1 
New Line.Lateral1.252 Bus1=1_251 Bus2=1_252 units=m Linecode=Line_MV_120 Length=1 
New Line.Lateral1.253 Bus1=1_252 Bus2=1_253 units=m Linecode=Line_MV_120 Length=1 
New Line.Lateral1.254 Bus1=1_253 Bus2=1_254 units=m Linecode=Line_MV_120 Length=1 
New Line.Lateral1.255 Bus1=1_254 Bus2=1_255 units=m Linecode=Line_MV_120 Length=1 
New Line.Lateral1.256 Bus1=1_255 Bus2=1_256 units=m Linecode=Line_MV_120 Length=1 
New Line.Lateral1.257 Bus1=1_256 Bus2=1_257 units=m Linecode=Line_MV_120 Length=1 
New Line.Lateral1.258 Bus1=1_257 Bus2=1_258 units=m Linecode=Line_MV_120 Length=1 
New Line.Lateral1.259 Bus1=1_258 Bus2=1_259 units=m Linecode=Line_MV_120 Length=1 
New Line.Lateral1.260 Bus1=1_259 Bus2=1_260 units=m Linecode=Line_MV_120 Length=1 
New Line.Lateral1.261 Bus1=1_260 Bus2=1_261 units=m Linecode=Line_MV_120 Length=1 
New Line.Lateral1.262 Bus1=1_261 Bus2=1_262 units=m Linecode=Line_MV_120 Length=1 
New Line.Lateral1.263 Bus1=1_262 Bus2=1_263 units=m Linecode=Line_MV_120 Length=1 
New Line.Lateral1.264 Bus1=1_263 Bus2=1_264 units=m Linecode=Line_MV_120 Length=1 
New Line.Lateral1.265 Bus1=1_264 Bus2=1_265 units=m Linecode=Line_MV_120 Length=1 
New Line.Lateral1.266 Bus1=1_265 Bus2=1_266 units=m Linecode=Line_MV_120 Length=1 
New Line.Lateral1.267 Bus1=1_266 Bus2=1_267 units=m Linecode=Line_MV_120 Length=1 
New Line.Lateral1.268 Bus1=1_267 Bus2=1_268 units=m Linecode=Line_MV_120 Length=1 
New Line.Lateral1.269 Bus1=1_268 Bus2=1_269 units=m Linecode=Line_MV_120 Length=1 
New Line.Lateral1.270 Bus1=1_269 Bus2=1_270 units=m Linecode=Line_MV_120 Length=1
New Line.Lateral1.271 Bus1=1_270 Bus2=1_271 units=m Linecode=Line_MV_120 Length=1 
New Line.Lateral1.272 Bus1=1_271 Bus2=1_272 units=m Linecode=Line_MV_120 Length=1 
New Line.Lateral1.273 Bus1=1_272 Bus2=1_273 units=m Linecode=Line_MV_120 Length=1 
New Line.Lateral1.274 Bus1=1_273 Bus2=1_274 units=m Linecode=Line_MV_120 Length=1 
New Line.Lateral1.275 Bus1=1_274 Bus2=1_275 units=m Linecode=Line_MV_120 Length=1 
New Line.Lateral1.276 Bus1=1_275 Bus2=1_276 units=m Linecode=Line_MV_120 Length=1 
New Line.Lateral1.277 Bus1=1_276 Bus2=1_277 units=m Linecode=Line_MV_120 Length=1
New Line.Lateral1.278 Bus1=1_277 Bus2=1_278 units=m Linecode=Line_MV_120 Length=1 
New Line.Lateral1.279 Bus1=1_278 Bus2=1_279 units=m Linecode=Line_MV_120 Length=1 
New Line.Lateral1.280 Bus1=1_279 Bus2=1_280 units=m Linecode=Line_MV_120 Length=1 
New Line.Lateral1.281 Bus1=1_280 Bus2=1_281 units=m Linecode=Line_MV_120 Length=1 
New Line.Lateral1.282 Bus1=1_281 Bus2=1_282 units=m Linecode=Line_MV_120 Length=1 
New Line.Lateral1.283 Bus1=1_282 Bus2=1_283 units=m Linecode=Line_MV_120 Length=1 
New Line.Lateral1.284 Bus1=1_283 Bus2=1_284 units=m Linecode=Line_MV_120 Length=1 
New Line.Lateral1.285 Bus1=1_284 Bus2=1_285 units=m Linecode=Line_MV_120 Length=1 
New Line.Lateral1.286 Bus1=1_285 Bus2=1_286 units=m Linecode=Line_MV_120 Length=1 
New Line.Lateral1.287 Bus1=1_286 Bus2=1_287 units=m Linecode=Line_MV_120 Length=1 
New Line.Lateral1.288 Bus1=1_287 Bus2=1_288 units=m Linecode=Line_MV_120 Length=1 
New Line.Lateral1.289 Bus1=1_288 Bus2=1_289 units=m Linecode=Line_MV_120 Length=1 
New Line.Lateral1.290 Bus1=1_289 Bus2=1_290 units=m Linecode=Line_MV_120 Length=1 
New Line.Lateral1.291 Bus1=1_290 Bus2=1_291 units=m Linecode=Line_MV_120 Length=1 
New Line.Lateral1.292 Bus1=1_291 Bus2=1_292 units=m Linecode=Line_MV_120 Length=1 
New Line.Lateral1.293 Bus1=1_292 Bus2=1_293 units=m Linecode=Line_MV_120 Length=1 
New Line.Lateral1.294 Bus1=1_293 Bus2=1_294 units=m Linecode=Line_MV_120 Length=1 
New Line.Lateral1.295 Bus1=1_294 Bus2=1_295 units=m Linecode=Line_MV_120 Length=1 
New Line.Lateral1.296 Bus1=1_295 Bus2=1_296 units=m Linecode=Line_MV_120 Length=1 
New Line.Lateral1.297 Bus1=1_296 Bus2=1_297 units=m Linecode=Line_MV_120 Length=1 
New Line.Lateral1.298 Bus1=1_297 Bus2=1_298 units=m Linecode=Line_MV_120 Length=1 
New Line.Lateral1.299 Bus1=1_298 Bus2=1_299 units=m Linecode=Line_MV_120 Length=1 
New Line.Lateral1.300 Bus1=1_299 Bus2=1_300 units=m Linecode=Line_MV_120 Length=1 
New Line.Lateral1.301 Bus1=1_300 Bus2=1_301 units=m Linecode=Line_MV_120 Length=1 
New Line.Lateral1.302 Bus1=1_301 Bus2=1_302 units=m Linecode=Line_MV_120 Length=1 
New Line.Lateral1.303 Bus1=1_302 Bus2=1_303 units=m Linecode=Line_MV_120 Length=1 
New Line.Lateral1.304 Bus1=1_303 Bus2=1_304 units=m Linecode=Line_MV_120 Length=1 
New Line.Lateral1.305 Bus1=1_304 Bus2=1_305 units=m Linecode=Line_MV_120 Length=1 
New Line.Lateral1.306 Bus1=1_305 Bus2=1_306 units=m Linecode=Line_MV_120 Length=1 
New Line.Lateral1.307 Bus1=1_306 Bus2=1_307 units=m Linecode=Line_MV_120 Length=1 
New Line.Lateral1.308 Bus1=1_307 Bus2=1_308 units=m Linecode=Line_MV_120 Length=1 
New Line.Lateral1.309 Bus1=1_308 Bus2=1_309 units=m Linecode=Line_MV_120 Length=1 
New Line.Lateral1.310 Bus1=1_309 Bus2=1_310 units=m Linecode=Line_MV_120 Length=1 
New Line.Lateral1.311 Bus1=1_310 Bus2=1_311 units=m Linecode=Line_MV_120 Length=1 
New Line.Lateral1.312 Bus1=1_311 Bus2=1_312 units=m Linecode=Line_MV_120 Length=1 
New Line.Lateral1.313 Bus1=1_312 Bus2=1_313 units=m Linecode=Line_MV_120 Length=1 
New Line.Lateral1.314 Bus1=1_313 Bus2=1_314 units=m Linecode=Line_MV_120 Length=1 
New Line.Lateral1.315 Bus1=1_314 Bus2=1_315 units=m Linecode=Line_MV_120 Length=1

New Line.Lateral1.316 Bus1=1_315 Bus2=1_316 units=m Linecode=Line_MV_120 Length=1 
New Line.Lateral1.317 Bus1=1_316 Bus2=1_317 units=m Linecode=Line_MV_120 Length=1 
New Line.Lateral1.318 Bus1=1_317 Bus2=1_318 units=m Linecode=Line_MV_120 Length=1 
New Line.Lateral1.319 Bus1=1_318 Bus2=1_319 units=m Linecode=Line_MV_120 Length=1 
New Line.Lateral1.320 Bus1=1_319 Bus2=1_320 units=m Linecode=Line_MV_120 Length=1 
New Line.Lateral1.321 Bus1=1_320 Bus2=1_321 units=m Linecode=Line_MV_120 Length=1 
New Line.Lateral1.322 Bus1=1_321 Bus2=1_322 units=m Linecode=Line_MV_120 Length=1 
New Line.Lateral1.323 Bus1=1_322 Bus2=1_323 units=m Linecode=Line_MV_120 Length=1 
New Line.Lateral1.324 Bus1=1_323 Bus2=1_324 units=m Linecode=Line_MV_120 Length=1 
New Line.Lateral1.325 Bus1=1_324 Bus2=1_325 units=m Linecode=Line_MV_120 Length=1 
New Line.Lateral1.326 Bus1=1_325 Bus2=1_326 units=m Linecode=Line_MV_120 Length=1 
New Line.Lateral1.327 Bus1=1_326 Bus2=1_327 units=m Linecode=Line_MV_120 Length=1 
New Line.Lateral1.328 Bus1=1_327 Bus2=1_328 units=m Linecode=Line_MV_120 Length=1 
New Line.Lateral1.329 Bus1=1_328 Bus2=1_329 units=m Linecode=Line_MV_120 Length=1 
New Line.Lateral1.330 Bus1=1_329 Bus2=1_330 units=m Linecode=Line_MV_120 Length=1 
New Line.Lateral1.331 Bus1=1_330 Bus2=1_331 units=m Linecode=Line_MV_120 Length=1 
New Line.Lateral1.332 Bus1=1_331 Bus2=1_332 units=m Linecode=Line_MV_120 Length=1 
New Line.Lateral1.333 Bus1=1_332 Bus2=1_333 units=m Linecode=Line_MV_120 Length=1 
New Line.Lateral1.334 Bus1=1_333 Bus2=1_334 units=m Linecode=Line_MV_120 Length=1
New Line.Lateral1.335 Bus1=1_334 Bus2=1_335 units=m Linecode=Line_MV_120 Length=1 
New Line.Lateral1.336 Bus1=1_335 Bus2=1_336 units=m Linecode=Line_MV_120 Length=1 
New Line.Lateral1.337 Bus1=1_336 Bus2=1_337 units=m Linecode=Line_MV_120 Length=1 
New Line.Lateral1.338 Bus1=1_337 Bus2=1_338 units=m Linecode=Line_MV_120 Length=1 
New Line.Lateral1.339 Bus1=1_338 Bus2=1_339 units=m Linecode=Line_MV_120 Length=1 
New Line.Lateral1.340 Bus1=1_339 Bus2=1_340 units=m Linecode=Line_MV_120 Length=1 
New Line.Lateral1.341 Bus1=1_340 Bus2=1_341 units=m Linecode=Line_MV_120 Length=1 
New Line.Lateral1.342 Bus1=1_341 Bus2=1_342 units=m Linecode=Line_MV_120 Length=1 
New Line.Lateral1.343 Bus1=1_342 Bus2=1_343 units=m Linecode=Line_MV_120 Length=1 
New Line.Lateral1.344 Bus1=1_343 Bus2=1_344 units=m Linecode=Line_MV_120 Length=1 
New Line.Lateral1.345 Bus1=1_344 Bus2=1_345 units=m Linecode=Line_MV_120 Length=1 
New Line.Lateral1.346 Bus1=1_345 Bus2=1_346 units=m Linecode=Line_MV_120 Length=1 
New Line.Lateral1.347 Bus1=1_346 Bus2=1_347 units=m Linecode=Line_MV_120 Length=1 
New Line.Lateral1.348 Bus1=1_347 Bus2=1_348 units=m Linecode=Line_MV_120 Length=1 
New Line.Lateral1.349 Bus1=1_348 Bus2=1_349 units=m Linecode=Line_MV_120 Length=1
New Line.Lateral1.350 Bus1=1_349 Bus2=1_350 units=m Linecode=Line_MV_120 Length=1 
New Line.Lateral1.351 Bus1=1_350 Bus2=1_351 units=m Linecode=Line_MV_120 Length=1 
New Line.Lateral1.352 Bus1=1_351 Bus2=1_352 units=m Linecode=Line_MV_120 Length=1 
New Line.Lateral1.353 Bus1=1_352 Bus2=1_353 units=m Linecode=Line_MV_120 Length=1 
New Line.Lateral1.354 Bus1=1_353 Bus2=1_354 units=m Linecode=Line_MV_120 Length=1 
New Line.Lateral1.355 Bus1=1_354 Bus2=1_355 units=m Linecode=Line_MV_120 Length=1 
New Line.Lateral1.356 Bus1=1_355 Bus2=1_356 units=m Linecode=Line_MV_120 Length=1 
New Line.Lateral1.357 Bus1=1_356 Bus2=1_357 units=m Linecode=Line_MV_120 Length=1 
New Line.Lateral1.358 Bus1=1_357 Bus2=1_358 units=m Linecode=Line_MV_120 Length=1 
New Line.Lateral1.359 Bus1=1_358 Bus2=1_359 units=m Linecode=Line_MV_120 Length=1 
New Line.Lateral1.360 Bus1=1_359 Bus2=1_360 units=m Linecode=Line_MV_120 Length=1 
New Line.Lateral1.361 Bus1=1_360 Bus2=1_361 units=m Linecode=Line_MV_120 Length=1 
New Line.Lateral1.362 Bus1=1_361 Bus2=1_362 units=m Linecode=Line_MV_120 Length=1 
New Line.Lateral1.363 Bus1=1_362 Bus2=1_363 units=m Linecode=Line_MV_120 Length=1