New Line.Consumer4_1 Bus1=4_37.1 Bus2=Consumer4_1.1 Length=0.03 units=km Linecode=Line_25
New Line.Consumer4_2 Bus1=4_45.2 Bus2=Consumer4_2.1 Length=0.03 units=km Linecode=Line_25
New Line.Consumer4_3 Bus1=4_53.3 Bus2=Consumer4_3.1 Length=0.03 units=km Linecode=Line_25
New Line.Consumer4_4 Bus1=4_61.1 Bus2=Consumer4_4.1 Length=0.03 units=km Linecode=Line_25
New Line.Consumer4_5 Bus1=4_69.2 Bus2=Consumer4_5.1 Length=0.03 units=km Linecode=Line_25
New Line.Consumer4_6 Bus1=4_77.3 Bus2=Consumer4_6.1 Length=0.03 units=km Linecode=Line_25
New Line.Consumer4_7 Bus1=4_85.1 Bus2=Consumer4_7.1 Length=0.03 units=km Linecode=Line_25
New Line.Consumer4_8 Bus1=4_93.2 Bus2=Consumer4_8.1 Length=0.03 units=km Linecode=Line_25
New Line.Consumer4_9 Bus1=4_101.3 Bus2=Consumer4_9.1 Length=0.03 units=km Linecode=Line_25
New Line.Consumer4_10 Bus1=4_109.1 Bus2=Consumer4_10.1 Length=0.03 units=km Linecode=Line_25
New Line.Consumer4_11 Bus1=4_117.2 Bus2=Consumer4_11.1 Length=0.03 units=km Linecode=Line_25
New Line.Consumer4_12 Bus1=4_125.3 Bus2=Consumer4_12.1 Length=0.03 units=km Linecode=Line_25
New Line.Consumer4_13 Bus1=4_133.1 Bus2=Consumer4_13.1 Length=0.03 units=km Linecode=Line_25
New Line.Consumer4_14 Bus1=4_141.2 Bus2=Consumer4_14.1 Length=0.03 units=km Linecode=Line_25

New Line.Consumer4_15 Bus1=4_149.3 Bus2=Consumer4_15.1 Length=0.03 units=km Linecode=Line_25

New Line.Consumer4_16 Bus1=4_157.1 Bus2=Consumer4_16.1 Length=0.03 units=km Linecode=Line_25

New Line.Consumer4_17 Bus1=4_165.2 Bus2=Consumer4_17.1 Length=0.03 units=km Linecode=Line_25

New Line.Consumer4_18 Bus1=4_244.3 Bus2=Consumer4_18.1 Length=0.03 units=km Linecode=Line_25

New Line.Consumer4_19 Bus1=4_246.1 Bus2=Consumer4_19.1 Length=0.03 units=km Linecode=Line_25

New Line.Consumer4_20 Bus1=4_248.2 Bus2=Consumer4_20.1 Length=0.03 units=km Linecode=Line_25

New Line.Consumer4_21 Bus1=4_250.3 Bus2=Consumer4_21.1 Length=0.03 units=km Linecode=Line_25

New Line.Consumer4_22 Bus1=4_252.1 Bus2=Consumer4_22.1 Length=0.03 units=km Linecode=Line_25

New Line.Consumer4_23 Bus1=4_254.2 Bus2=Consumer4_23.1 Length=0.03 units=km Linecode=Line_25

New Line.Consumer4_24 Bus1=4_256.3 Bus2=Consumer4_24.1 Length=0.03 units=km Linecode=Line_25

New Line.Consumer4_25 Bus1=4_258.1 Bus2=Consumer4_25.1 Length=0.03 units=km Linecode=Line_25

New Line.Consumer4_26 Bus1=4_260.2 Bus2=Consumer4_26.1 Length=0.03 units=km Linecode=Line_25

New Line.Consumer4_27 Bus1=4_262.3 Bus2=Consumer4_27.1 Length=0.03 units=km Linecode=Line_25

New Line.Consumer4_28 Bus1=4_264.1 Bus2=Consumer4_28.1 Length=0.03 units=km Linecode=Line_25

New Line.Consumer4_29 Bus1=4_266.2 Bus2=Consumer4_29.1 Length=0.03 units=km Linecode=Line_25

New Line.Consumer4_30 Bus1=4_268.3 Bus2=Consumer4_30.1 Length=0.03 units=km Linecode=Line_25

New Line.Consumer4_31 Bus1=4_270.1 Bus2=Consumer4_31.1 Length=0.03 units=km Linecode=Line_25

New Line.Consumer4_32 Bus1=4_272.2 Bus2=Consumer4_32.1 Length=0.03 units=km Linecode=Line_25

New Line.Consumer4_33 Bus1=4_274.3 Bus2=Consumer4_33.1 Length=0.03 units=km Linecode=Line_25

New Line.Consumer4_34 Bus1=4_276.1 Bus2=Consumer4_34.1 Length=0.03 units=km Linecode=Line_25

New Line.Consumer4_35 Bus1=4_278.2 Bus2=Consumer4_35.1 Length=0.03 units=km Linecode=Line_25

New Line.Consumer4_36 Bus1=4_280.3 Bus2=Consumer4_36.1 Length=0.03 units=km Linecode=Line_25

New Line.Consumer4_37 Bus1=4_282.1 Bus2=Consumer4_37.1 Length=0.03 units=km Linecode=Line_25

New Line.Consumer4_38 Bus1=4_284.2 Bus2=Consumer4_38.1 Length=0.03 units=km Linecode=Line_25

New Line.Consumer4_39 Bus1=4_286.3 Bus2=Consumer4_39.1 Length=0.03 units=km Linecode=Line_25

New Line.Consumer4_40 Bus1=4_288.1 Bus2=Consumer4_40.1 Length=0.03 units=km Linecode=Line_25

New Line.Consumer4_41 Bus1=4_290.2 Bus2=Consumer4_41.1 Length=0.03 units=km Linecode=Line_25

New Line.Consumer4_42 Bus1=4_292.3 Bus2=Consumer4_42.1 Length=0.03 units=km Linecode=Line_25

New Line.Consumer4_43 Bus1=4_294.1 Bus2=Consumer4_43.1 Length=0.03 units=km Linecode=Line_25 

New Line.Consumer4_44 Bus1=4_296.2 Bus2=Consumer4_44.1 Length=0.03 units=km Linecode=Line_25 

New Line.Consumer4_45 Bus1=4_298.3 Bus2=Consumer4_45.1 Length=0.03 units=km Linecode=Line_25 

New Line.Consumer4_46 Bus1=4_300.1 Bus2=Consumer4_46.1 Length=0.03 units=km Linecode=Line_25 

New Line.Consumer4_47 Bus1=4_304.2 Bus2=Consumer4_47.1 Length=0.03 units=km Linecode=Line_25 

New Line.Consumer4_48 Bus1=4_306.3 Bus2=Consumer4_48.1 Length=0.03 units=km Linecode=Line_25 

New Line.Consumer4_49 Bus1=4_308.1 Bus2=Consumer4_49.1 Length=0.03 units=km Linecode=Line_25 

New Line.Consumer4_50 Bus1=4_310.2 Bus2=Consumer4_50.1 Length=0.03 units=km Linecode=Line_25 
New Line.Consumer4_51 Bus1=4_312.3 Bus2=Consumer4_51.1 Length=0.03 units=km Linecode=Line_25 

New Line.Consumer4_52 Bus1=4_314.1 Bus2=Consumer4_52.1 Length=0.03 units=km Linecode=Line_25
New Line.Consumer4_53 Bus1=4_316.2 Bus2=Consumer4_53.1 Length=0.03 units=km Linecode=Line_25 

New Line.Consumer4_54 Bus1=4_318.3 Bus2=Consumer4_54.1 Length=0.03 units=km Linecode=Line_25
New Line.Consumer4_55 Bus1=4_320.1 Bus2=Consumer4_55.1 Length=0.03 units=km Linecode=Line_25 
New Line.Consumer4_56 Bus1=4_322.2 Bus2=Consumer4_56.1 Length=0.03 units=km Linecode=Line_25 

New Line.Consumer4_57 Bus1=4_324.3 Bus2=Consumer4_57.1 Length=0.03 units=km Linecode=Line_25 

New Line.Consumer4_58 Bus1=4_326.1 Bus2=Consumer4_58.1 Length=0.03 units=km Linecode=Line_25 

New Line.Consumer4_59 Bus1=4_328.2 Bus2=Consumer4_59.1 Length=0.03 units=km Linecode=Line_25 

New Line.Consumer4_60 Bus1=4_330.3 Bus2=Consumer4_60.1 Length=0.03 units=km Linecode=Line_25 

New Line.Consumer4_61 Bus1=4_332.1 Bus2=Consumer4_61.1 Length=0.03 units=km Linecode=Line_25 

New Line.Consumer4_62 Bus1=4_334.2 Bus2=Consumer4_62.1 Length=0.03 units=km Linecode=Line_25
New Line.Consumer4_63 Bus1=4_336.3 Bus2=Consumer4_63.1 Length=0.03 units=km Linecode=Line_25 
New Line.Consumer4_64 Bus1=4_338.1 Bus2=Consumer4_64.1 Length=0.03 units=km Linecode=Line_25 
New Line.Consumer4_65 Bus1=4_340.2 Bus2=Consumer4_65.1 Length=0.03 units=km Linecode=Line_25 
New Line.Consumer4_66 Bus1=4_342.3 Bus2=Consumer4_66.1 Length=0.03 units=km Linecode=Line_25 
New Line.Consumer4_67 Bus1=4_344.1 Bus2=Consumer4_67.1 Length=0.03 units=km Linecode=Line_25 
New Line.Consumer4_68 Bus1=4_346.2 Bus2=Consumer4_68.1 Length=0.03 units=km Linecode=Line_25 
New Line.Consumer4_69 Bus1=4_348.3 Bus2=Consumer4_69.1 Length=0.03 units=km Linecode=Line_25 
New Line.Consumer4_70 Bus1=4_350.1 Bus2=Consumer4_70.1 Length=0.03 units=km Linecode=Line_25


New Line.Consumer4_71 Bus1=4_451.2 Bus2=Consumer4_71.1 Length=0.03 units=km Linecode=Line_25

New Line.Consumer4_72 Bus1=4_454.3 Bus2=Consumer4_72.1 Length=0.03 units=km Linecode=Line_25

New Line.Consumer4_73 Bus1=4_457.1 Bus2=Consumer4_73.1 Length=0.03 units=km Linecode=Line_25

New Line.Consumer4_74 Bus1=4_460.2 Bus2=Consumer4_74.1 Length=0.03 units=km Linecode=Line_25
New Line.Consumer4_75 Bus1=4_463.3 Bus2=Consumer4_75.1 Length=0.03 units=km Linecode=Line_25

New Line.Consumer4_76 Bus1=4_466.1 Bus2=Consumer4_76.1 Length=0.03 units=km Linecode=Line_25

New Line.Consumer4_77 Bus1=4_469.2 Bus2=Consumer4_77.1 Length=0.03 units=km Linecode=Line_25

New Line.Consumer4_78 Bus1=4_472.3 Bus2=Consumer4_78.1 Length=0.03 units=km Linecode=Line_25

New Line.Consumer4_79 Bus1=4_475.1 Bus2=Consumer4_79.1 Length=0.03 units=km Linecode=Line_25 

New Line.Consumer4_80 Bus1=4_478.2 Bus2=Consumer4_80.1 Length=0.03 units=km Linecode=Line_25 

New Line.Consumer4_81 Bus1=4_481.3 Bus2=Consumer4_81.1 Length=0.03 units=km Linecode=Line_25 

New Line.Consumer4_82 Bus1=4_484.1 Bus2=Consumer4_82.1 Length=0.03 units=km Linecode=Line_25 

New Line.Consumer4_83 Bus1=4_487.2 Bus2=Consumer4_83.1 Length=0.03 units=km Linecode=Line_25 

New Line.Consumer4_84 Bus1=4_490.3 Bus2=Consumer4_84.1 Length=0.03 units=km Linecode=Line_25 

New Line.Consumer4_85 Bus1=4_493.1 Bus2=Consumer4_85.1 Length=0.03 units=km Linecode=Line_25 

New Line.Consumer4_86 Bus1=4_496.2 Bus2=Consumer4_86.1 Length=0.03 units=km Linecode=Line_25

New Line.Consumer4_87 Bus1=4_499.3 Bus2=Consumer4_87.1 Length=0.03 units=km Linecode=Line_25 

New Line.Consumer4_88 Bus1=4_502.1 Bus2=Consumer4_88.1 Length=0.03 units=km Linecode=Line_25 
New Line.Consumer4_89 Bus1=4_505.2 Bus2=Consumer4_89.1 Length=0.03 units=km Linecode=Line_25
New Line.Consumer4_90 Bus1=4_508.3 Bus2=Consumer4_90.1 Length=0.03 units=km Linecode=Line_25 

New Line.Consumer4_91 Bus1=4_511.1 Bus2=Consumer4_91.1 Length=0.03 units=km Linecode=Line_25 

New Line.Consumer4_92 Bus1=4_514.2 Bus2=Consumer4_92.1 Length=0.03 units=km Linecode=Line_25 

New Line.Consumer4_93 Bus1=4_517.3 Bus2=Consumer4_93.1 Length=0.03 units=km Linecode=Line_25 

New Line.Consumer4_94 Bus1=4_520.1 Bus2=Consumer4_94.1 Length=0.03 units=km Linecode=Line_25 

New Line.Consumer4_95 Bus1=4_523.2 Bus2=Consumer4_95.1 Length=0.03 units=km Linecode=Line_25 

New Line.Consumer4_96 Bus1=4_526.3 Bus2=Consumer4_96.1 Length=0.03 units=km Linecode=Line_25 

New Line.Consumer4_97 Bus1=4_529.1 Bus2=Consumer4_97.1 Length=0.03 units=km Linecode=Line_25 

New Line.Consumer4_98 Bus1=4_532.2 Bus2=Consumer4_98.1 Length=0.03 units=km Linecode=Line_25 

New Line.Consumer4_99 Bus1=4_535.3 Bus2=Consumer4_99.1 Length=0.03 units=km Linecode=Line_25 

New Line.Consumer4_100 Bus1=4_538.1 Bus2=Consumer4_100.1 Length=0.03 units=km Linecode=Line_25

New Line.Consumer4_101 Bus1=4_541.1 Bus2=Consumer4_101.1 Length=0.03 units=km Linecode=Line_25 

New Line.Consumer4_102 Bus1=4_544.2 Bus2=Consumer4_102.1 Length=0.03 units=km Linecode=Line_25

New Line.Consumer4_103 Bus1=4_547.3 Bus2=Consumer4_103.1 Length=0.03 units=km Linecode=Line_25 

New Line.Consumer4_104 Bus1=4_550.1 Bus2=Consumer4_104.1 Length=0.03 units=km Linecode=Line_25 
New Line.Consumer4_105 Bus1=4_553.2 Bus2=Consumer4_105.1 Length=0.03 units=km Linecode=Line_25
New Line.Consumer4_106 Bus1=4_556.3 Bus2=Consumer4_106.1 Length=0.03 units=km Linecode=Line_25 

New Line.Consumer4_107 Bus1=4_559.1 Bus2=Consumer4_107.1 Length=0.03 units=km Linecode=Line_25 

New Line.Consumer4_108 Bus1=4_562.2 Bus2=Consumer4_108.1 Length=0.03 units=km Linecode=Line_25 

New Line.Consumer4_109 Bus1=4_565.3 Bus2=Consumer4_109.1 Length=0.03 units=km Linecode=Line_25 

New Line.Consumer4_110 Bus1=4_568.1 Bus2=Consumer4_110.1 Length=0.03 units=km Linecode=Line_25 

New Line.Consumer4_111 Bus1=4_571.2 Bus2=Consumer4_111.1 Length=0.03 units=km Linecode=Line_25 

New Line.Consumer4_112 Bus1=4_574.3 Bus2=Consumer4_112.1 Length=0.03 units=km Linecode=Line_25 

New Line.Consumer4_113 Bus1=4_577.1 Bus2=Consumer4_113.1 Length=0.03 units=km Linecode=Line_25 

New Line.Consumer4_114 Bus1=4_580.2 Bus2=Consumer4_114.1 Length=0.03 units=km Linecode=Line_25



New Line.Consumer4_115 Bus1=4_588.2 Bus2=Consumer4_115.1 Length=0.03 units=km Linecode=Line_25
New Line.Consumer4_116 Bus1=4_591.3 Bus2=Consumer4_116.1 Length=0.03 units=km Linecode=Line_25 

New Line.Consumer4_117 Bus1=4_594.1 Bus2=Consumer4_117.1 Length=0.03 units=km Linecode=Line_25 
New Line.Consumer4_118 Bus1=4_597.2 Bus2=Consumer4_118.1 Length=0.03 units=km Linecode=Line_25 

New Line.Consumer4_119 Bus1=4_600.3 Bus2=Consumer4_119.1 Length=0.03 units=km Linecode=Line_25 

New Line.Consumer4_120 Bus1=4_603.1 Bus2=Consumer4_120.1 Length=0.03 units=km Linecode=Line_25 

New Line.Consumer4_121 Bus1=4_606.2 Bus2=Consumer4_121.1 Length=0.03 units=km Linecode=Line_25 

New Line.Consumer4_122 Bus1=4_609.3 Bus2=Consumer4_122.1 Length=0.03 units=km Linecode=Line_25 

New Line.Consumer4_123 Bus1=4_612.1 Bus2=Consumer4_123.1 Length=0.03 units=km Linecode=Line_25 

New Line.Consumer4_124 Bus1=4_615.2 Bus2=Consumer4_124.1 Length=0.03 units=km Linecode=Line_25

New Line.Consumer4_125 Bus1=4_618.2 Bus2=Consumer4_125.1 Length=0.03 units=km Linecode=Line_25
New Line.Consumer4_126 Bus1=4_621.3 Bus2=Consumer4_126.1 Length=0.03 units=km Linecode=Line_25 

New Line.Consumer4_127 Bus1=4_624.1 Bus2=Consumer4_127.1 Length=0.03 units=km Linecode=Line_25 
New Line.Consumer4_128 Bus1=4_627.2 Bus2=Consumer4_128.1 Length=0.03 units=km Linecode=Line_25 

New Line.Consumer4_129 Bus1=4_630.3 Bus2=Consumer4_129.1 Length=0.03 units=km Linecode=Line_25 

New Line.Consumer4_130 Bus1=4_633.1 Bus2=Consumer4_130.1 Length=0.03 units=km Linecode=Line_25 

New Line.Consumer4_131 Bus1=4_636.2 Bus2=Consumer4_131.1 Length=0.03 units=km Linecode=Line_25 

New Line.Consumer4_132 Bus1=4_639.3 Bus2=Consumer4_132.1 Length=0.03 units=km Linecode=Line_25 

New Line.Consumer4_133 Bus1=4_642.1 Bus2=Consumer4_133.1 Length=0.03 units=km Linecode=Line_25 

New Line.Consumer4_134 Bus1=4_645.2 Bus2=Consumer4_134.1 Length=0.03 units=km Linecode=Line_25  

New Line.Consumer4_135 Bus1=4_648.2 Bus2=Consumer4_135.1 Length=0.03 units=km Linecode=Line_25
New Line.Consumer4_136 Bus1=4_651.3 Bus2=Consumer4_136.1 Length=0.03 units=km Linecode=Line_25 

New Line.Consumer4_137 Bus1=4_654.1 Bus2=Consumer4_137.1 Length=0.03 units=km Linecode=Line_25
New Line.Consumer4_138 Bus1=4_657.2 Bus2=Consumer4_138.1 Length=0.03 units=km Linecode=Line_25 

New Line.Consumer4_139 Bus1=4_660.3 Bus2=Consumer4_139.1 Length=0.03 units=km Linecode=Line_25 

New Line.Consumer4_140 Bus1=4_663.1 Bus2=Consumer4_140.1 Length=0.03 units=km Linecode=Line_25 
New Line.Consumer4_141 Bus1=4_666.2 Bus2=Consumer4_141.1 Length=0.03 units=km Linecode=Line_25 

New Line.Consumer4_142 Bus1=4_669.3 Bus2=Consumer4_142.1 Length=0.03 units=km Linecode=Line_25 

New Line.Consumer4_143 Bus1=4_672.1 Bus2=Consumer4_143.1 Length=0.03 units=km Linecode=Line_25

New Line.Consumer4_144 Bus1=4_675.2 Bus2=Consumer4_144.1 Length=0.03 units=km Linecode=Line_25 

New Line.Consumer4_145 Bus1=4_678.2 Bus2=Consumer4_145.1 Length=0.03 units=km Linecode=Line_25
New Line.Consumer4_146 Bus1=4_681.3 Bus2=Consumer4_146.1 Length=0.03 units=km Linecode=Line_25 

New Line.Consumer4_147 Bus1=4_684.1 Bus2=Consumer4_147.1 Length=0.03 units=km Linecode=Line_25 
New Line.Consumer4_148 Bus1=4_687.2 Bus2=Consumer4_148.1 Length=0.03 units=km Linecode=Line_25 

New Line.Consumer4_149 Bus1=4_690.3 Bus2=Consumer4_149.1 Length=0.03 units=km Linecode=Line_25 

New Line.Consumer4_150 Bus1=4_693.1 Bus2=Consumer4_150.1 Length=0.03 units=km Linecode=Line_25 

New Line.Consumer4_151 Bus1=4_696.2 Bus2=Consumer4_151.1 Length=0.03 units=km Linecode=Line_25

New Line.Consumer4_152 Bus1=4_699.3 Bus2=Consumer4_152.1 Length=0.03 units=km Linecode=Line_25 

New Line.Consumer4_153 Bus1=4_702.1 Bus2=Consumer4_153.1 Length=0.03 units=km Linecode=Line_25 

New Line.Consumer4_154 Bus1=4_705.2 Bus2=Consumer4_154.1 Length=0.03 units=km Linecode=Line_25

New Line.Consumer4_155 Bus1=4_708.2 Bus2=Consumer4_155.1 Length=0.03 units=km Linecode=Line_25
New Line.Consumer4_156 Bus1=4_711.3 Bus2=Consumer4_156.1 Length=0.03 units=km Linecode=Line_25 

New Line.Consumer4_157 Bus1=4_714.1 Bus2=Consumer4_157.1 Length=0.03 units=km Linecode=Line_25 
New Line.Consumer4_158 Bus1=4_717.2 Bus2=Consumer4_158.1 Length=0.03 units=km Linecode=Line_25 
    
