New Line.Consumer3_1 Bus1=3_37.1 Bus2=Consumer3_1.1 Length=0.03 units=km Linecode=Line_25
New Line.Consumer3_2 Bus1=3_45.2 Bus2=Consumer3_2.1 Length=0.03 units=km Linecode=Line_25
New Line.Consumer3_3 Bus1=3_53.3 Bus2=Consumer3_3.1 Length=0.03 units=km Linecode=Line_25
New Line.Consumer3_4 Bus1=3_61.1 Bus2=Consumer3_4.1 Length=0.03 units=km Linecode=Line_25
New Line.Consumer3_5 Bus1=3_69.2 Bus2=Consumer3_5.1 Length=0.03 units=km Linecode=Line_25
New Line.Consumer3_6 Bus1=3_77.3 Bus2=Consumer3_6.1 Length=0.03 units=km Linecode=Line_25
New Line.Consumer3_7 Bus1=3_85.1 Bus2=Consumer3_7.1 Length=0.03 units=km Linecode=Line_25
New Line.Consumer3_8 Bus1=3_93.2 Bus2=Consumer3_8.1 Length=0.03 units=km Linecode=Line_25
New Line.Consumer3_9 Bus1=3_101.3 Bus2=Consumer3_9.1 Length=0.03 units=km Linecode=Line_25
New Line.Consumer3_10 Bus1=3_109.1 Bus2=Consumer3_10.1 Length=0.03 units=km Linecode=Line_25
New Line.Consumer3_11 Bus1=3_117.2 Bus2=Consumer3_11.1 Length=0.03 units=km Linecode=Line_25
New Line.Consumer3_12 Bus1=3_125.3 Bus2=Consumer3_12.1 Length=0.03 units=km Linecode=Line_25
New Line.Consumer3_13 Bus1=3_133.1 Bus2=Consumer3_13.1 Length=0.03 units=km Linecode=Line_25
New Line.Consumer3_14 Bus1=3_141.2 Bus2=Consumer3_14.1 Length=0.03 units=km Linecode=Line_25

New Line.Consumer3_15 Bus1=3_149.3 Bus2=Consumer3_15.1 Length=0.03 units=km Linecode=Line_25

New Line.Consumer3_16 Bus1=3_157.1 Bus2=Consumer3_16.1 Length=0.03 units=km Linecode=Line_25

New Line.Consumer3_17 Bus1=3_165.2 Bus2=Consumer3_17.1 Length=0.03 units=km Linecode=Line_25

New Line.Consumer3_18 Bus1=3_244.3 Bus2=Consumer3_18.1 Length=0.03 units=km Linecode=Line_25

New Line.Consumer3_19 Bus1=3_246.1 Bus2=Consumer3_19.1 Length=0.03 units=km Linecode=Line_25

New Line.Consumer3_20 Bus1=3_248.2 Bus2=Consumer3_20.1 Length=0.03 units=km Linecode=Line_25

New Line.Consumer3_21 Bus1=3_250.3 Bus2=Consumer3_21.1 Length=0.03 units=km Linecode=Line_25

New Line.Consumer3_22 Bus1=3_252.1 Bus2=Consumer3_22.1 Length=0.03 units=km Linecode=Line_25

New Line.Consumer3_23 Bus1=3_254.2 Bus2=Consumer3_23.1 Length=0.03 units=km Linecode=Line_25

New Line.Consumer3_24 Bus1=3_256.3 Bus2=Consumer3_24.1 Length=0.03 units=km Linecode=Line_25

New Line.Consumer3_25 Bus1=3_258.1 Bus2=Consumer3_25.1 Length=0.03 units=km Linecode=Line_25

New Line.Consumer3_26 Bus1=3_260.2 Bus2=Consumer3_26.1 Length=0.03 units=km Linecode=Line_25

New Line.Consumer3_27 Bus1=3_262.3 Bus2=Consumer3_27.1 Length=0.03 units=km Linecode=Line_25

New Line.Consumer3_28 Bus1=3_264.1 Bus2=Consumer3_28.1 Length=0.03 units=km Linecode=Line_25

New Line.Consumer3_29 Bus1=3_266.2 Bus2=Consumer3_29.1 Length=0.03 units=km Linecode=Line_25

New Line.Consumer3_30 Bus1=3_268.3 Bus2=Consumer3_30.1 Length=0.03 units=km Linecode=Line_25

New Line.Consumer3_31 Bus1=3_270.1 Bus2=Consumer3_31.1 Length=0.03 units=km Linecode=Line_25

New Line.Consumer3_32 Bus1=3_272.2 Bus2=Consumer3_32.1 Length=0.03 units=km Linecode=Line_25

New Line.Consumer3_33 Bus1=3_274.3 Bus2=Consumer3_33.1 Length=0.03 units=km Linecode=Line_25

New Line.Consumer3_34 Bus1=3_276.1 Bus2=Consumer3_34.1 Length=0.03 units=km Linecode=Line_25

New Line.Consumer3_35 Bus1=3_278.2 Bus2=Consumer3_35.1 Length=0.03 units=km Linecode=Line_25

New Line.Consumer3_36 Bus1=3_280.3 Bus2=Consumer3_36.1 Length=0.03 units=km Linecode=Line_25

New Line.Consumer3_37 Bus1=3_282.1 Bus2=Consumer3_37.1 Length=0.03 units=km Linecode=Line_25

New Line.Consumer3_38 Bus1=3_284.2 Bus2=Consumer3_38.1 Length=0.03 units=km Linecode=Line_25

New Line.Consumer3_39 Bus1=3_286.3 Bus2=Consumer3_39.1 Length=0.03 units=km Linecode=Line_25

New Line.Consumer3_40 Bus1=3_288.1 Bus2=Consumer3_40.1 Length=0.03 units=km Linecode=Line_25

New Line.Consumer3_41 Bus1=3_290.2 Bus2=Consumer3_41.1 Length=0.03 units=km Linecode=Line_25

New Line.Consumer3_42 Bus1=3_292.3 Bus2=Consumer3_42.1 Length=0.03 units=km Linecode=Line_25

New Line.Consumer3_43 Bus1=3_294.1 Bus2=Consumer3_43.1 Length=0.03 units=km Linecode=Line_25 

New Line.Consumer3_44 Bus1=3_296.2 Bus2=Consumer3_44.1 Length=0.03 units=km Linecode=Line_25 

New Line.Consumer3_45 Bus1=3_298.3 Bus2=Consumer3_45.1 Length=0.03 units=km Linecode=Line_25 

New Line.Consumer3_46 Bus1=3_300.1 Bus2=Consumer3_46.1 Length=0.03 units=km Linecode=Line_25 

New Line.Consumer3_47 Bus1=3_304.2 Bus2=Consumer3_47.1 Length=0.03 units=km Linecode=Line_25 

New Line.Consumer3_48 Bus1=3_306.3 Bus2=Consumer3_48.1 Length=0.03 units=km Linecode=Line_25 

New Line.Consumer3_49 Bus1=3_308.1 Bus2=Consumer3_49.1 Length=0.03 units=km Linecode=Line_25 

New Line.Consumer3_50 Bus1=3_310.2 Bus2=Consumer3_50.1 Length=0.03 units=km Linecode=Line_25 
New Line.Consumer3_51 Bus1=3_312.3 Bus2=Consumer3_51.1 Length=0.03 units=km Linecode=Line_25 

New Line.Consumer3_52 Bus1=3_314.1 Bus2=Consumer3_52.1 Length=0.03 units=km Linecode=Line_25
New Line.Consumer3_53 Bus1=3_316.2 Bus2=Consumer3_53.1 Length=0.03 units=km Linecode=Line_25 

New Line.Consumer3_54 Bus1=3_318.3 Bus2=Consumer3_54.1 Length=0.03 units=km Linecode=Line_25
New Line.Consumer3_55 Bus1=3_320.1 Bus2=Consumer3_55.1 Length=0.03 units=km Linecode=Line_25 
New Line.Consumer3_56 Bus1=3_322.2 Bus2=Consumer3_56.1 Length=0.03 units=km Linecode=Line_25 

New Line.Consumer3_57 Bus1=3_324.3 Bus2=Consumer3_57.1 Length=0.03 units=km Linecode=Line_25 

New Line.Consumer3_58 Bus1=3_326.1 Bus2=Consumer3_58.1 Length=0.03 units=km Linecode=Line_25 

New Line.Consumer3_59 Bus1=3_328.2 Bus2=Consumer3_59.1 Length=0.03 units=km Linecode=Line_25 

New Line.Consumer3_60 Bus1=3_330.3 Bus2=Consumer3_60.1 Length=0.03 units=km Linecode=Line_25 

New Line.Consumer3_61 Bus1=3_332.1 Bus2=Consumer3_61.1 Length=0.03 units=km Linecode=Line_25 

New Line.Consumer3_62 Bus1=3_334.2 Bus2=Consumer3_62.1 Length=0.03 units=km Linecode=Line_25
New Line.Consumer3_63 Bus1=3_336.3 Bus2=Consumer3_63.1 Length=0.03 units=km Linecode=Line_25 
New Line.Consumer3_64 Bus1=3_338.1 Bus2=Consumer3_64.1 Length=0.03 units=km Linecode=Line_25 
New Line.Consumer3_65 Bus1=3_340.2 Bus2=Consumer3_65.1 Length=0.03 units=km Linecode=Line_25 
New Line.Consumer3_66 Bus1=3_342.3 Bus2=Consumer3_66.1 Length=0.03 units=km Linecode=Line_25 
New Line.Consumer3_67 Bus1=3_344.1 Bus2=Consumer3_67.1 Length=0.03 units=km Linecode=Line_25 
New Line.Consumer3_68 Bus1=3_346.2 Bus2=Consumer3_68.1 Length=0.03 units=km Linecode=Line_25 
New Line.Consumer3_69 Bus1=3_348.3 Bus2=Consumer3_69.1 Length=0.03 units=km Linecode=Line_25 
New Line.Consumer3_70 Bus1=3_350.1 Bus2=Consumer3_70.1 Length=0.03 units=km Linecode=Line_25


New Line.Consumer3_71 Bus1=3_451.2 Bus2=Consumer3_71.1 Length=0.03 units=km Linecode=Line_25

New Line.Consumer3_72 Bus1=3_454.3 Bus2=Consumer3_72.1 Length=0.03 units=km Linecode=Line_25

New Line.Consumer3_73 Bus1=3_457.1 Bus2=Consumer3_73.1 Length=0.03 units=km Linecode=Line_25

New Line.Consumer3_74 Bus1=3_460.2 Bus2=Consumer3_74.1 Length=0.03 units=km Linecode=Line_25
New Line.Consumer3_75 Bus1=3_463.3 Bus2=Consumer3_75.1 Length=0.03 units=km Linecode=Line_25

New Line.Consumer3_76 Bus1=3_466.1 Bus2=Consumer3_76.1 Length=0.03 units=km Linecode=Line_25

New Line.Consumer3_77 Bus1=3_469.2 Bus2=Consumer3_77.1 Length=0.03 units=km Linecode=Line_25

New Line.Consumer3_78 Bus1=3_472.3 Bus2=Consumer3_78.1 Length=0.03 units=km Linecode=Line_25

New Line.Consumer3_79 Bus1=3_475.1 Bus2=Consumer3_79.1 Length=0.03 units=km Linecode=Line_25 

New Line.Consumer3_80 Bus1=3_478.2 Bus2=Consumer3_80.1 Length=0.03 units=km Linecode=Line_25 

New Line.Consumer3_81 Bus1=3_481.3 Bus2=Consumer3_81.1 Length=0.03 units=km Linecode=Line_25 

New Line.Consumer3_82 Bus1=3_484.1 Bus2=Consumer3_82.1 Length=0.03 units=km Linecode=Line_25 

New Line.Consumer3_83 Bus1=3_487.2 Bus2=Consumer3_83.1 Length=0.03 units=km Linecode=Line_25 

New Line.Consumer3_84 Bus1=3_490.3 Bus2=Consumer3_84.1 Length=0.03 units=km Linecode=Line_25 

New Line.Consumer3_85 Bus1=3_493.1 Bus2=Consumer3_85.1 Length=0.03 units=km Linecode=Line_25 

New Line.Consumer3_86 Bus1=3_496.2 Bus2=Consumer3_86.1 Length=0.03 units=km Linecode=Line_25

New Line.Consumer3_87 Bus1=3_499.3 Bus2=Consumer3_87.1 Length=0.03 units=km Linecode=Line_25 

New Line.Consumer3_88 Bus1=3_502.1 Bus2=Consumer3_88.1 Length=0.03 units=km Linecode=Line_25 
New Line.Consumer3_89 Bus1=3_505.2 Bus2=Consumer3_89.1 Length=0.03 units=km Linecode=Line_25
New Line.Consumer3_90 Bus1=3_508.3 Bus2=Consumer3_90.1 Length=0.03 units=km Linecode=Line_25 

New Line.Consumer3_91 Bus1=3_511.1 Bus2=Consumer3_91.1 Length=0.03 units=km Linecode=Line_25 

New Line.Consumer3_92 Bus1=3_514.2 Bus2=Consumer3_92.1 Length=0.03 units=km Linecode=Line_25 

New Line.Consumer3_93 Bus1=3_517.3 Bus2=Consumer3_93.1 Length=0.03 units=km Linecode=Line_25 

New Line.Consumer3_94 Bus1=3_520.1 Bus2=Consumer3_94.1 Length=0.03 units=km Linecode=Line_25 

New Line.Consumer3_95 Bus1=3_523.2 Bus2=Consumer3_95.1 Length=0.03 units=km Linecode=Line_25 

New Line.Consumer3_96 Bus1=3_526.3 Bus2=Consumer3_96.1 Length=0.03 units=km Linecode=Line_25 

New Line.Consumer3_97 Bus1=3_529.1 Bus2=Consumer3_97.1 Length=0.03 units=km Linecode=Line_25 

New Line.Consumer3_98 Bus1=3_532.2 Bus2=Consumer3_98.1 Length=0.03 units=km Linecode=Line_25 

New Line.Consumer3_99 Bus1=3_535.3 Bus2=Consumer3_99.1 Length=0.03 units=km Linecode=Line_25 

New Line.Consumer3_100 Bus1=3_538.1 Bus2=Consumer3_100.1 Length=0.03 units=km Linecode=Line_25

New Line.Consumer3_101 Bus1=3_541.1 Bus2=Consumer3_101.1 Length=0.03 units=km Linecode=Line_25 

New Line.Consumer3_102 Bus1=3_544.2 Bus2=Consumer3_102.1 Length=0.03 units=km Linecode=Line_25

New Line.Consumer3_103 Bus1=3_547.3 Bus2=Consumer3_103.1 Length=0.03 units=km Linecode=Line_25 

New Line.Consumer3_104 Bus1=3_550.1 Bus2=Consumer3_104.1 Length=0.03 units=km Linecode=Line_25 
New Line.Consumer3_105 Bus1=3_553.2 Bus2=Consumer3_105.1 Length=0.03 units=km Linecode=Line_25
New Line.Consumer3_106 Bus1=3_556.3 Bus2=Consumer3_106.1 Length=0.03 units=km Linecode=Line_25 

New Line.Consumer3_107 Bus1=3_559.1 Bus2=Consumer3_107.1 Length=0.03 units=km Linecode=Line_25 

New Line.Consumer3_108 Bus1=3_562.2 Bus2=Consumer3_108.1 Length=0.03 units=km Linecode=Line_25 

New Line.Consumer3_109 Bus1=3_565.3 Bus2=Consumer3_109.1 Length=0.03 units=km Linecode=Line_25 

New Line.Consumer3_110 Bus1=3_568.1 Bus2=Consumer3_110.1 Length=0.03 units=km Linecode=Line_25 

New Line.Consumer3_111 Bus1=3_571.2 Bus2=Consumer3_111.1 Length=0.03 units=km Linecode=Line_25 

New Line.Consumer3_112 Bus1=3_574.3 Bus2=Consumer3_112.1 Length=0.03 units=km Linecode=Line_25 

New Line.Consumer3_113 Bus1=3_577.1 Bus2=Consumer3_113.1 Length=0.03 units=km Linecode=Line_25 

New Line.Consumer3_114 Bus1=3_580.2 Bus2=Consumer3_114.1 Length=0.03 units=km Linecode=Line_25 
   

New Line.Consumer3_115 Bus1=3_588.2 Bus2=Consumer3_115.1 Length=0.03 units=km Linecode=Line_25
New Line.Consumer3_116 Bus1=3_591.3 Bus2=Consumer3_116.1 Length=0.03 units=km Linecode=Line_25 

New Line.Consumer3_117 Bus1=3_594.1 Bus2=Consumer3_117.1 Length=0.03 units=km Linecode=Line_25 
New Line.Consumer3_118 Bus1=3_597.2 Bus2=Consumer3_118.1 Length=0.03 units=km Linecode=Line_25 

New Line.Consumer3_119 Bus1=3_600.3 Bus2=Consumer3_119.1 Length=0.03 units=km Linecode=Line_25 

New Line.Consumer3_120 Bus1=3_603.1 Bus2=Consumer3_120.1 Length=0.03 units=km Linecode=Line_25 

New Line.Consumer3_121 Bus1=3_606.2 Bus2=Consumer3_121.1 Length=0.03 units=km Linecode=Line_25 

New Line.Consumer3_122 Bus1=3_609.3 Bus2=Consumer3_122.1 Length=0.03 units=km Linecode=Line_25 

New Line.Consumer3_123 Bus1=3_612.1 Bus2=Consumer3_123.1 Length=0.03 units=km Linecode=Line_25 

New Line.Consumer3_124 Bus1=3_615.2 Bus2=Consumer3_124.1 Length=0.03 units=km Linecode=Line_25

New Line.Consumer3_125 Bus1=3_618.2 Bus2=Consumer3_125.1 Length=0.03 units=km Linecode=Line_25
New Line.Consumer3_126 Bus1=3_621.3 Bus2=Consumer3_126.1 Length=0.03 units=km Linecode=Line_25 

New Line.Consumer3_127 Bus1=3_624.1 Bus2=Consumer3_127.1 Length=0.03 units=km Linecode=Line_25 
New Line.Consumer3_128 Bus1=3_627.2 Bus2=Consumer3_128.1 Length=0.03 units=km Linecode=Line_25 

New Line.Consumer3_129 Bus1=3_630.3 Bus2=Consumer3_129.1 Length=0.03 units=km Linecode=Line_25 

New Line.Consumer3_130 Bus1=3_633.1 Bus2=Consumer3_130.1 Length=0.03 units=km Linecode=Line_25 

New Line.Consumer3_131 Bus1=3_636.2 Bus2=Consumer3_131.1 Length=0.03 units=km Linecode=Line_25 

New Line.Consumer3_132 Bus1=3_639.3 Bus2=Consumer3_132.1 Length=0.03 units=km Linecode=Line_25 

New Line.Consumer3_133 Bus1=3_642.1 Bus2=Consumer3_133.1 Length=0.03 units=km Linecode=Line_25 

New Line.Consumer3_134 Bus1=3_645.2 Bus2=Consumer3_134.1 Length=0.03 units=km Linecode=Line_25  

New Line.Consumer3_135 Bus1=3_648.2 Bus2=Consumer3_135.1 Length=0.03 units=km Linecode=Line_25
New Line.Consumer3_136 Bus1=3_651.3 Bus2=Consumer3_136.1 Length=0.03 units=km Linecode=Line_25 

New Line.Consumer3_137 Bus1=3_654.1 Bus2=Consumer3_137.1 Length=0.03 units=km Linecode=Line_25
New Line.Consumer3_138 Bus1=3_657.2 Bus2=Consumer3_138.1 Length=0.03 units=km Linecode=Line_25 

New Line.Consumer3_139 Bus1=3_660.3 Bus2=Consumer3_139.1 Length=0.03 units=km Linecode=Line_25 

New Line.Consumer3_140 Bus1=3_663.1 Bus2=Consumer3_140.1 Length=0.03 units=km Linecode=Line_25 

New Line.Consumer3_141 Bus1=3_666.2 Bus2=Consumer3_141.1 Length=0.03 units=km Linecode=Line_25 

New Line.Consumer3_142 Bus1=3_669.3 Bus2=Consumer3_142.1 Length=0.03 units=km Linecode=Line_25 

New Line.Consumer3_143 Bus1=3_672.1 Bus2=Consumer3_143.1 Length=0.03 units=km Linecode=Line_25

New Line.Consumer3_144 Bus1=3_675.2 Bus2=Consumer3_144.1 Length=0.03 units=km Linecode=Line_25 

New Line.Consumer3_145 Bus1=3_678.2 Bus2=Consumer3_145.1 Length=0.03 units=km Linecode=Line_25
New Line.Consumer3_146 Bus1=3_681.3 Bus2=Consumer3_146.1 Length=0.03 units=km Linecode=Line_25 

New Line.Consumer3_147 Bus1=3_684.1 Bus2=Consumer3_147.1 Length=0.03 units=km Linecode=Line_25 
New Line.Consumer3_148 Bus1=3_687.2 Bus2=Consumer3_148.1 Length=0.03 units=km Linecode=Line_25 

New Line.Consumer3_149 Bus1=3_690.3 Bus2=Consumer3_149.1 Length=0.03 units=km Linecode=Line_25 

New Line.Consumer3_150 Bus1=3_693.1 Bus2=Consumer3_150.1 Length=0.03 units=km Linecode=Line_25 

New Line.Consumer3_151 Bus1=3_696.2 Bus2=Consumer3_151.1 Length=0.03 units=km Linecode=Line_25

New Line.Consumer3_152 Bus1=3_699.3 Bus2=Consumer3_152.1 Length=0.03 units=km Linecode=Line_25 

New Line.Consumer3_153 Bus1=3_702.1 Bus2=Consumer3_153.1 Length=0.03 units=km Linecode=Line_25 

New Line.Consumer3_154 Bus1=3_705.2 Bus2=Consumer3_154.1 Length=0.03 units=km Linecode=Line_25

New Line.Consumer3_155 Bus1=3_708.2 Bus2=Consumer3_155.1 Length=0.03 units=km Linecode=Line_25
New Line.Consumer3_156 Bus1=3_711.3 Bus2=Consumer3_156.1 Length=0.03 units=km Linecode=Line_25 

New Line.Consumer3_157 Bus1=3_714.1 Bus2=Consumer3_157.1 Length=0.03 units=km Linecode=Line_25 
New Line.Consumer3_158 Bus1=3_717.2 Bus2=Consumer3_158.1 Length=0.03 units=km Linecode=Line_25 

   
