New Line.Consumer2_1 Bus1=2_37.1 Bus2=Consumer2_1.1 Length=0.03 units=km Linecode=Line_25
New Line.Consumer2_2 Bus1=2_45.2 Bus2=Consumer2_2.1 Length=0.03 units=km Linecode=Line_25
New Line.Consumer2_3 Bus1=2_53.3 Bus2=Consumer2_3.1 Length=0.03 units=km Linecode=Line_25
New Line.Consumer2_4 Bus1=2_61.1 Bus2=Consumer2_4.1 Length=0.03 units=km Linecode=Line_25
New Line.Consumer2_5 Bus1=2_69.2 Bus2=Consumer2_5.1 Length=0.03 units=km Linecode=Line_25
New Line.Consumer2_6 Bus1=2_77.3 Bus2=Consumer2_6.1 Length=0.03 units=km Linecode=Line_25
New Line.Consumer2_7 Bus1=2_85.1 Bus2=Consumer2_7.1 Length=0.03 units=km Linecode=Line_25
New Line.Consumer2_8 Bus1=2_93.2 Bus2=Consumer2_8.1 Length=0.03 units=km Linecode=Line_25
New Line.Consumer2_9 Bus1=2_101.3 Bus2=Consumer2_9.1 Length=0.03 units=km Linecode=Line_25
New Line.Consumer2_10 Bus1=2_109.1 Bus2=Consumer2_10.1 Length=0.03 units=km Linecode=Line_25
New Line.Consumer2_11 Bus1=2_117.2 Bus2=Consumer2_11.1 Length=0.03 units=km Linecode=Line_25
New Line.Consumer2_12 Bus1=2_125.3 Bus2=Consumer2_12.1 Length=0.03 units=km Linecode=Line_25
New Line.Consumer2_13 Bus1=2_133.1 Bus2=Consumer2_13.1 Length=0.03 units=km Linecode=Line_25
New Line.Consumer2_14 Bus1=2_141.2 Bus2=Consumer2_14.1 Length=0.03 units=km Linecode=Line_25

New Line.Consumer2_15 Bus1=2_149.3 Bus2=Consumer2_15.1 Length=0.03 units=km Linecode=Line_25

New Line.Consumer2_16 Bus1=2_157.1 Bus2=Consumer2_16.1 Length=0.03 units=km Linecode=Line_25

New Line.Consumer2_17 Bus1=2_165.2 Bus2=Consumer2_17.1 Length=0.03 units=km Linecode=Line_25

New Line.Consumer2_18 Bus1=2_244.3 Bus2=Consumer2_18.1 Length=0.03 units=km Linecode=Line_25

New Line.Consumer2_19 Bus1=2_246.1 Bus2=Consumer2_19.1 Length=0.03 units=km Linecode=Line_25

New Line.Consumer2_20 Bus1=2_248.2 Bus2=Consumer2_20.1 Length=0.03 units=km Linecode=Line_25

New Line.Consumer2_21 Bus1=2_250.3 Bus2=Consumer2_21.1 Length=0.03 units=km Linecode=Line_25

New Line.Consumer2_22 Bus1=2_252.1 Bus2=Consumer2_22.1 Length=0.03 units=km Linecode=Line_25

New Line.Consumer2_23 Bus1=2_254.2 Bus2=Consumer2_23.1 Length=0.03 units=km Linecode=Line_25

New Line.Consumer2_24 Bus1=2_256.3 Bus2=Consumer2_24.1 Length=0.03 units=km Linecode=Line_25

New Line.Consumer2_25 Bus1=2_258.1 Bus2=Consumer2_25.1 Length=0.03 units=km Linecode=Line_25

New Line.Consumer2_26 Bus1=2_260.2 Bus2=Consumer2_26.1 Length=0.03 units=km Linecode=Line_25

New Line.Consumer2_27 Bus1=2_262.3 Bus2=Consumer2_27.1 Length=0.03 units=km Linecode=Line_25

New Line.Consumer2_28 Bus1=2_264.1 Bus2=Consumer2_28.1 Length=0.03 units=km Linecode=Line_25

New Line.Consumer2_29 Bus1=2_266.2 Bus2=Consumer2_29.1 Length=0.03 units=km Linecode=Line_25

New Line.Consumer2_30 Bus1=2_268.3 Bus2=Consumer2_30.1 Length=0.03 units=km Linecode=Line_25

New Line.Consumer2_31 Bus1=2_270.1 Bus2=Consumer2_31.1 Length=0.03 units=km Linecode=Line_25

New Line.Consumer2_32 Bus1=2_272.2 Bus2=Consumer2_32.1 Length=0.03 units=km Linecode=Line_25

New Line.Consumer2_33 Bus1=2_274.3 Bus2=Consumer2_33.1 Length=0.03 units=km Linecode=Line_25

New Line.Consumer2_34 Bus1=2_276.1 Bus2=Consumer2_34.1 Length=0.03 units=km Linecode=Line_25

New Line.Consumer2_35 Bus1=2_278.2 Bus2=Consumer2_35.1 Length=0.03 units=km Linecode=Line_25

New Line.Consumer2_36 Bus1=2_280.3 Bus2=Consumer2_36.1 Length=0.03 units=km Linecode=Line_25

New Line.Consumer2_37 Bus1=2_282.1 Bus2=Consumer2_37.1 Length=0.03 units=km Linecode=Line_25

New Line.Consumer2_38 Bus1=2_284.2 Bus2=Consumer2_38.1 Length=0.03 units=km Linecode=Line_25

New Line.Consumer2_39 Bus1=2_286.3 Bus2=Consumer2_39.1 Length=0.03 units=km Linecode=Line_25

New Line.Consumer2_40 Bus1=2_288.1 Bus2=Consumer2_40.1 Length=0.03 units=km Linecode=Line_25

New Line.Consumer2_41 Bus1=2_290.2 Bus2=Consumer2_41.1 Length=0.03 units=km Linecode=Line_25

New Line.Consumer2_42 Bus1=2_292.3 Bus2=Consumer2_42.1 Length=0.03 units=km Linecode=Line_25

New Line.Consumer2_43 Bus1=2_294.1 Bus2=Consumer2_43.1 Length=0.03 units=km Linecode=Line_25 

New Line.Consumer2_44 Bus1=2_296.2 Bus2=Consumer2_44.1 Length=0.03 units=km Linecode=Line_25 

New Line.Consumer2_45 Bus1=2_298.3 Bus2=Consumer2_45.1 Length=0.03 units=km Linecode=Line_25 

New Line.Consumer2_46 Bus1=2_300.1 Bus2=Consumer2_46.1 Length=0.03 units=km Linecode=Line_25 

New Line.Consumer2_47 Bus1=2_304.2 Bus2=Consumer2_47.1 Length=0.03 units=km Linecode=Line_25 

New Line.Consumer2_48 Bus1=2_306.3 Bus2=Consumer2_48.1 Length=0.03 units=km Linecode=Line_25 

New Line.Consumer2_49 Bus1=2_308.1 Bus2=Consumer2_49.1 Length=0.03 units=km Linecode=Line_25 

New Line.Consumer2_50 Bus1=2_310.2 Bus2=Consumer2_50.1 Length=0.03 units=km Linecode=Line_25 
New Line.Consumer2_51 Bus1=2_312.3 Bus2=Consumer2_51.1 Length=0.03 units=km Linecode=Line_25 

New Line.Consumer2_52 Bus1=2_314.1 Bus2=Consumer2_52.1 Length=0.03 units=km Linecode=Line_25
New Line.Consumer2_53 Bus1=2_316.2 Bus2=Consumer2_53.1 Length=0.03 units=km Linecode=Line_25 

New Line.Consumer2_54 Bus1=2_318.3 Bus2=Consumer2_54.1 Length=0.03 units=km Linecode=Line_25
New Line.Consumer2_55 Bus1=2_320.1 Bus2=Consumer2_55.1 Length=0.03 units=km Linecode=Line_25 
New Line.Consumer2_56 Bus1=2_322.2 Bus2=Consumer2_56.1 Length=0.03 units=km Linecode=Line_25 

New Line.Consumer2_57 Bus1=2_324.3 Bus2=Consumer2_57.1 Length=0.03 units=km Linecode=Line_25 

New Line.Consumer2_58 Bus1=2_326.1 Bus2=Consumer2_58.1 Length=0.03 units=km Linecode=Line_25 

New Line.Consumer2_59 Bus1=2_328.2 Bus2=Consumer2_59.1 Length=0.03 units=km Linecode=Line_25 

New Line.Consumer2_60 Bus1=2_330.3 Bus2=Consumer2_60.1 Length=0.03 units=km Linecode=Line_25 

New Line.Consumer2_61 Bus1=2_332.1 Bus2=Consumer2_61.1 Length=0.03 units=km Linecode=Line_25 

New Line.Consumer2_62 Bus1=2_334.2 Bus2=Consumer2_62.1 Length=0.03 units=km Linecode=Line_25
New Line.Consumer2_63 Bus1=2_336.3 Bus2=Consumer2_63.1 Length=0.03 units=km Linecode=Line_25 
New Line.Consumer2_64 Bus1=2_338.1 Bus2=Consumer2_64.1 Length=0.03 units=km Linecode=Line_25 
New Line.Consumer2_65 Bus1=2_340.2 Bus2=Consumer2_65.1 Length=0.03 units=km Linecode=Line_25 
New Line.Consumer2_66 Bus1=2_342.3 Bus2=Consumer2_66.1 Length=0.03 units=km Linecode=Line_25 
New Line.Consumer2_67 Bus1=2_344.1 Bus2=Consumer2_67.1 Length=0.03 units=km Linecode=Line_25 
New Line.Consumer2_68 Bus1=2_346.2 Bus2=Consumer2_68.1 Length=0.03 units=km Linecode=Line_25 
New Line.Consumer2_69 Bus1=2_348.3 Bus2=Consumer2_69.1 Length=0.03 units=km Linecode=Line_25 
New Line.Consumer2_70 Bus1=2_350.1 Bus2=Consumer2_70.1 Length=0.03 units=km Linecode=Line_25


New Line.Consumer2_71 Bus1=2_451.2 Bus2=Consumer2_71.1 Length=0.03 units=km Linecode=Line_25

New Line.Consumer2_72 Bus1=2_454.3 Bus2=Consumer2_72.1 Length=0.03 units=km Linecode=Line_25

New Line.Consumer2_73 Bus1=2_457.1 Bus2=Consumer2_73.1 Length=0.03 units=km Linecode=Line_25

New Line.Consumer2_74 Bus1=2_460.2 Bus2=Consumer2_74.1 Length=0.03 units=km Linecode=Line_25
New Line.Consumer2_75 Bus1=2_463.3 Bus2=Consumer2_75.1 Length=0.03 units=km Linecode=Line_25

New Line.Consumer2_76 Bus1=2_466.1 Bus2=Consumer2_76.1 Length=0.03 units=km Linecode=Line_25

New Line.Consumer2_77 Bus1=2_469.2 Bus2=Consumer2_77.1 Length=0.03 units=km Linecode=Line_25

New Line.Consumer2_78 Bus1=2_472.3 Bus2=Consumer2_78.1 Length=0.03 units=km Linecode=Line_25

New Line.Consumer2_79 Bus1=2_475.1 Bus2=Consumer2_79.1 Length=0.03 units=km Linecode=Line_25 

New Line.Consumer2_80 Bus1=2_478.2 Bus2=Consumer2_80.1 Length=0.03 units=km Linecode=Line_25 

New Line.Consumer2_81 Bus1=2_481.3 Bus2=Consumer2_81.1 Length=0.03 units=km Linecode=Line_25 

New Line.Consumer2_82 Bus1=2_484.1 Bus2=Consumer2_82.1 Length=0.03 units=km Linecode=Line_25 

New Line.Consumer2_83 Bus1=2_487.2 Bus2=Consumer2_83.1 Length=0.03 units=km Linecode=Line_25 

New Line.Consumer2_84 Bus1=2_490.3 Bus2=Consumer2_84.1 Length=0.03 units=km Linecode=Line_25 

New Line.Consumer2_85 Bus1=2_493.1 Bus2=Consumer2_85.1 Length=0.03 units=km Linecode=Line_25 

New Line.Consumer2_86 Bus1=2_496.2 Bus2=Consumer2_86.1 Length=0.03 units=km Linecode=Line_25

New Line.Consumer2_87 Bus1=2_499.3 Bus2=Consumer2_87.1 Length=0.03 units=km Linecode=Line_25 

New Line.Consumer2_88 Bus1=2_502.1 Bus2=Consumer2_88.1 Length=0.03 units=km Linecode=Line_25 
New Line.Consumer2_89 Bus1=2_505.2 Bus2=Consumer2_89.1 Length=0.03 units=km Linecode=Line_25
New Line.Consumer2_90 Bus1=2_508.3 Bus2=Consumer2_90.1 Length=0.03 units=km Linecode=Line_25 

New Line.Consumer2_91 Bus1=2_511.1 Bus2=Consumer2_91.1 Length=0.03 units=km Linecode=Line_25 

New Line.Consumer2_92 Bus1=2_514.2 Bus2=Consumer2_92.1 Length=0.03 units=km Linecode=Line_25 

New Line.Consumer2_93 Bus1=2_517.3 Bus2=Consumer2_93.1 Length=0.03 units=km Linecode=Line_25 

New Line.Consumer2_94 Bus1=2_520.1 Bus2=Consumer2_94.1 Length=0.03 units=km Linecode=Line_25 

New Line.Consumer2_95 Bus1=2_523.2 Bus2=Consumer2_95.1 Length=0.03 units=km Linecode=Line_25 

New Line.Consumer2_96 Bus1=2_526.3 Bus2=Consumer2_96.1 Length=0.03 units=km Linecode=Line_25 

New Line.Consumer2_97 Bus1=2_529.1 Bus2=Consumer2_97.1 Length=0.03 units=km Linecode=Line_25 

New Line.Consumer2_98 Bus1=2_532.2 Bus2=Consumer2_98.1 Length=0.03 units=km Linecode=Line_25 

New Line.Consumer2_99 Bus1=2_535.3 Bus2=Consumer2_99.1 Length=0.03 units=km Linecode=Line_25 

New Line.Consumer2_100 Bus1=2_538.1 Bus2=Consumer2_100.1 Length=0.03 units=km Linecode=Line_25

New Line.Consumer2_101 Bus1=2_541.1 Bus2=Consumer2_101.1 Length=0.03 units=km Linecode=Line_25 

New Line.Consumer2_102 Bus1=2_544.2 Bus2=Consumer2_102.1 Length=0.03 units=km Linecode=Line_25

New Line.Consumer2_103 Bus1=2_547.3 Bus2=Consumer2_103.1 Length=0.03 units=km Linecode=Line_25 

New Line.Consumer2_104 Bus1=2_550.1 Bus2=Consumer2_104.1 Length=0.03 units=km Linecode=Line_25 
New Line.Consumer2_105 Bus1=2_553.2 Bus2=Consumer2_105.1 Length=0.03 units=km Linecode=Line_25
New Line.Consumer2_106 Bus1=2_556.3 Bus2=Consumer2_106.1 Length=0.03 units=km Linecode=Line_25 

New Line.Consumer2_107 Bus1=2_559.1 Bus2=Consumer2_107.1 Length=0.03 units=km Linecode=Line_25 

New Line.Consumer2_108 Bus1=2_562.2 Bus2=Consumer2_108.1 Length=0.03 units=km Linecode=Line_25 

New Line.Consumer2_109 Bus1=2_565.3 Bus2=Consumer2_109.1 Length=0.03 units=km Linecode=Line_25 

New Line.Consumer2_110 Bus1=2_568.1 Bus2=Consumer2_110.1 Length=0.03 units=km Linecode=Line_25 

New Line.Consumer2_111 Bus1=2_571.2 Bus2=Consumer2_111.1 Length=0.03 units=km Linecode=Line_25 

New Line.Consumer2_112 Bus1=2_574.3 Bus2=Consumer2_112.1 Length=0.03 units=km Linecode=Line_25 

New Line.Consumer2_113 Bus1=2_577.1 Bus2=Consumer2_113.1 Length=0.03 units=km Linecode=Line_25 

New Line.Consumer2_114 Bus1=2_580.2 Bus2=Consumer2_114.1 Length=0.03 units=km Linecode=Line_25 


New Line.Consumer2_115 Bus1=2_588.2 Bus2=Consumer2_115.1 Length=0.03 units=km Linecode=Line_25
New Line.Consumer2_116 Bus1=2_591.3 Bus2=Consumer2_116.1 Length=0.03 units=km Linecode=Line_25 

New Line.Consumer2_117 Bus1=2_594.1 Bus2=Consumer2_117.1 Length=0.03 units=km Linecode=Line_25 
New Line.Consumer2_118 Bus1=2_597.2 Bus2=Consumer2_118.1 Length=0.03 units=km Linecode=Line_25 

New Line.Consumer2_119 Bus1=2_600.3 Bus2=Consumer2_119.1 Length=0.03 units=km Linecode=Line_25 

New Line.Consumer2_120 Bus1=2_603.1 Bus2=Consumer2_120.1 Length=0.03 units=km Linecode=Line_25 

New Line.Consumer2_121 Bus1=2_606.2 Bus2=Consumer2_121.1 Length=0.03 units=km Linecode=Line_25 

New Line.Consumer2_122 Bus1=2_609.3 Bus2=Consumer2_122.1 Length=0.03 units=km Linecode=Line_25 

New Line.Consumer2_123 Bus1=2_612.1 Bus2=Consumer2_123.1 Length=0.03 units=km Linecode=Line_25 

New Line.Consumer2_124 Bus1=2_615.2 Bus2=Consumer2_124.1 Length=0.03 units=km Linecode=Line_25

New Line.Consumer2_125 Bus1=2_618.2 Bus2=Consumer2_125.1 Length=0.03 units=km Linecode=Line_25
New Line.Consumer2_126 Bus1=2_621.3 Bus2=Consumer2_126.1 Length=0.03 units=km Linecode=Line_25 

New Line.Consumer2_127 Bus1=2_624.1 Bus2=Consumer2_127.1 Length=0.03 units=km Linecode=Line_25 
New Line.Consumer2_128 Bus1=2_627.2 Bus2=Consumer2_128.1 Length=0.03 units=km Linecode=Line_25 

New Line.Consumer2_129 Bus1=2_630.3 Bus2=Consumer2_129.1 Length=0.03 units=km Linecode=Line_25 

New Line.Consumer2_130 Bus1=2_633.1 Bus2=Consumer2_130.1 Length=0.03 units=km Linecode=Line_25 

New Line.Consumer2_131 Bus1=2_636.2 Bus2=Consumer2_131.1 Length=0.03 units=km Linecode=Line_25 

New Line.Consumer2_132 Bus1=2_639.3 Bus2=Consumer2_132.1 Length=0.03 units=km Linecode=Line_25 

New Line.Consumer2_133 Bus1=2_642.1 Bus2=Consumer2_133.1 Length=0.03 units=km Linecode=Line_25 

New Line.Consumer2_134 Bus1=2_645.2 Bus2=Consumer2_134.1 Length=0.03 units=km Linecode=Line_25  

New Line.Consumer2_135 Bus1=2_648.2 Bus2=Consumer2_135.1 Length=0.03 units=km Linecode=Line_25
New Line.Consumer2_136 Bus1=2_651.3 Bus2=Consumer2_136.1 Length=0.03 units=km Linecode=Line_25 

New Line.Consumer2_137 Bus1=2_654.1 Bus2=Consumer2_137.1 Length=0.03 units=km Linecode=Line_25
New Line.Consumer2_138 Bus1=2_657.2 Bus2=Consumer2_138.1 Length=0.03 units=km Linecode=Line_25 

New Line.Consumer2_139 Bus1=2_660.3 Bus2=Consumer2_139.1 Length=0.03 units=km Linecode=Line_25 

New Line.Consumer2_140 Bus1=2_663.1 Bus2=Consumer2_140.1 Length=0.03 units=km Linecode=Line_25 

New Line.Consumer2_141 Bus1=2_666.2 Bus2=Consumer2_141.1 Length=0.03 units=km Linecode=Line_25 

New Line.Consumer2_142 Bus1=2_669.3 Bus2=Consumer2_142.1 Length=0.03 units=km Linecode=Line_25 

New Line.Consumer2_143 Bus1=2_672.1 Bus2=Consumer2_143.1 Length=0.03 units=km Linecode=Line_25

New Line.Consumer2_144 Bus1=2_675.2 Bus2=Consumer2_144.1 Length=0.03 units=km Linecode=Line_25 

New Line.Consumer2_145 Bus1=2_678.2 Bus2=Consumer2_145.1 Length=0.03 units=km Linecode=Line_25
New Line.Consumer2_146 Bus1=2_681.3 Bus2=Consumer2_146.1 Length=0.03 units=km Linecode=Line_25 

New Line.Consumer2_147 Bus1=2_684.1 Bus2=Consumer2_147.1 Length=0.03 units=km Linecode=Line_25 
New Line.Consumer2_148 Bus1=2_687.2 Bus2=Consumer2_148.1 Length=0.03 units=km Linecode=Line_25 

New Line.Consumer2_149 Bus1=2_690.3 Bus2=Consumer2_149.1 Length=0.03 units=km Linecode=Line_25 

New Line.Consumer2_150 Bus1=2_693.1 Bus2=Consumer2_150.1 Length=0.03 units=km Linecode=Line_25 

New Line.Consumer2_151 Bus1=2_696.2 Bus2=Consumer2_151.1 Length=0.03 units=km Linecode=Line_25

New Line.Consumer2_152 Bus1=2_699.3 Bus2=Consumer2_152.1 Length=0.03 units=km Linecode=Line_25 

New Line.Consumer2_153 Bus1=2_702.1 Bus2=Consumer2_153.1 Length=0.03 units=km Linecode=Line_25 

New Line.Consumer2_154 Bus1=2_705.2 Bus2=Consumer2_154.1 Length=0.03 units=km Linecode=Line_25

New Line.Consumer2_155 Bus1=2_708.2 Bus2=Consumer2_155.1 Length=0.03 units=km Linecode=Line_25
New Line.Consumer2_156 Bus1=2_711.3 Bus2=Consumer2_156.1 Length=0.03 units=km Linecode=Line_25 

New Line.Consumer2_157 Bus1=2_714.1 Bus2=Consumer2_157.1 Length=0.03 units=km Linecode=Line_25 
New Line.Consumer2_158 Bus1=2_717.2 Bus2=Consumer2_158.1 Length=0.03 units=km Linecode=Line_25 

   