Clear

Set DefaultBaseFrequency=50
New Circuit.CustomLVNetwork

Edit Vsource.Source BasekV=11 pu=1.00 angle=0 ISC3=3000 ISC1=2500
 

Set voltagebases=[11 0.4]
CalcVoltageBases








