New Line.MVFeeder4.1    Bus1=Main_Busbar    Bus2=4_1    Length=10   units=m Linecode=Line_185
New Line.MVFeeder4.2    Bus1=4_1    Bus2=4_2    Length=10   units=m Linecode=Line_185
New Line.MVFeeder4.3    Bus1=4_2    Bus2=4_3    Length=10   units=m Linecode=Line_185
New Line.MVFeeder4.4    Bus1=4_3    Bus2=4_4    Length=10   units=m Linecode=Line_185
New Line.MVFeeder4.5    Bus1=4_4    Bus2=4_5    Length=10   units=m Linecode=Line_185
New Line.MVFeeder4.6    Bus1=4_5    Bus2=4_6    Length=10   units=m Linecode=Line_185
New Line.MVFeeder4.7    Bus1=4_6    Bus2=4_7    Length=10   units=m Linecode=Line_185
New Line.MVFeeder4.8    Bus1=4_7    Bus2=4_8    Length=10   units=m Linecode=Line_185
New Line.MVFeeder4.9    Bus1=4_8    Bus2=4_9    Length=10   units=m Linecode=Line_185
New Line.MVFeeder4.10   Bus1=4_9    Bus2=4_10   Length=10   units=m Linecode=Line_185
New Line.MVFeeder4.11   Bus1=4_10   Bus2=4_11   Length=10   units=m Linecode=Line_185
New Line.MVFeeder4.12   Bus1=4_11   Bus2=4_12   Length=10   units=m Linecode=Line_185
New Line.MVFeeder4.13   Bus1=4_12   Bus2=4_13   Length=10   units=m Linecode=Line_185
New Line.MVFeeder4.14   Bus1=4_13   Bus2=4_14   Length=10   units=m Linecode=Line_185
New Line.MVFeeder4.15   Bus1=4_14   Bus2=4_15   Length=10   units=m Linecode=Line_185
New Line.MVFeeder4.16   Bus1=4_15   Bus2=4_16   Length=10   units=m Linecode=Line_185
New Line.MVFeeder4.17   Bus1=4_16   Bus2=4_17   Length=10   units=m Linecode=Line_185
New Line.MVFeeder4.18   Bus1=4_17   Bus2=4_18   Length=10   units=m Linecode=Line_185
New Line.MVFeeder4.19   Bus1=4_18   Bus2=4_19   Length=10   units=m Linecode=Line_185
New Line.MVFeeder4.20   Bus1=4_19   Bus2=4_20   Length=10   units=m Linecode=Line_185
New Line.MVFeeder4.21   Bus1=4_20   Bus2=4_21   Length=10   units=m Linecode=Line_185
New Line.MVFeeder4.22   Bus1=4_21   Bus2=4_22   Length=10   units=m Linecode=Line_185
New Line.MVFeeder4.23   Bus1=4_22   Bus2=4_23   Length=10   units=m Linecode=Line_185
New Line.MVFeeder4.24   Bus1=4_23   Bus2=4_24   Length=10   units=m Linecode=Line_185
New Line.MVFeeder4.25   Bus1=4_24   Bus2=4_25   Length=10   units=m Linecode=Line_185
New Line.MVFeeder4.26   Bus1=4_25   Bus2=4_26   Length=10   units=m Linecode=Line_185
New Line.MVFeeder4.27   Bus1=4_26   Bus2=4_27   Length=10   units=m Linecode=Line_185
New Line.MVFeeder4.28   Bus1=4_27   Bus2=4_28   Length=10   units=m Linecode=Line_185
New Line.MVFeeder4.29   Bus1=4_28   Bus2=4_29   Length=10   units=m Linecode=Line_185
New Line.MVFeeder4.30   Bus1=4_29   Bus2=4_30   Length=10   units=m Linecode=Line_185
                        
New Line.MVFeeder4.31   Bus1=4_30   Bus2=4_31   Length=10   units=m Linecode=Line_185
New Line.MVFeeder4.32   Bus1=4_31   Bus2=4_32   Length=10   units=m Linecode=Line_185
New Line.MVFeeder4.33   Bus1=4_32   Bus2=4_33   Length=10   units=m Linecode=Line_185
New Line.MVFeeder4.34   Bus1=4_33   Bus2=4_34   Length=10   units=m Linecode=Line_185
New Line.MVFeeder4.35   Bus1=4_34   Bus2=4_35   Length=10   units=m Linecode=Line_185
                        
New Line.MVFeeder4.36   Bus1=4_35   Bus2=4_36   Length=10   units=m Linecode=Line_185
                        
New Line.MVFeeder4.37   Bus1=4_36   Bus2=4_37   Length=10   units=m Linecode=Line_185
New Line.MVFeeder4.38   Bus1=4_37   Bus2=4_38   Length=10   units=m Linecode=Line_185
New Line.MVFeeder4.39   Bus1=4_38   Bus2=4_39   Length=10   units=m Linecode=Line_185
New Line.MVFeeder4.40   Bus1=4_39   Bus2=4_40   Length=10   units=m Linecode=Line_185
New Line.MVFeeder4.41   Bus1=4_40   Bus2=4_41   Length=10   units=m Linecode=Line_185
New Line.MVFeeder4.42   Bus1=4_41   Bus2=4_42   Length=10   units=m Linecode=Line_185
New Line.MVFeeder4.43   Bus1=4_42   Bus2=4_43   Length=10   units=m Linecode=Line_185
New Line.MVFeeder4.44   Bus1=4_43   Bus2=4_44   Length=10   units=m Linecode=Line_185
New Line.MVFeeder4.45   Bus1=4_44   Bus2=4_45   Length=10   units=m Linecode=Line_185
                        
                        
New Line.MVLateral4_start_1 Bus1=4_44   Bus2=4_46   Length=10   units=m Linecode=Line_95
New Line.MVLateral4.47  Bus1=4_46   Bus2=4_47   Length=10   units=m Linecode=Line_95
New Line.MVLateral4.48  Bus1=4_47   Bus2=4_48   Length=10   units=m Linecode=Line_95
New Line.MVLateral4.49  Bus1=4_48   Bus2=4_49   Length=10   units=m Linecode=Line_95
New Line.MVLateral4.50  Bus1=4_49   Bus2=4_50   Length=10   units=m Linecode=Line_95
New Line.MVLateral4.51  Bus1=4_50   Bus2=4_51   Length=10   units=m Linecode=Line_95
New Line.MVLateral4.52  Bus1=4_51   Bus2=4_52   Length=10   units=m Linecode=Line_95
New Line.MVLateral4.53  Bus1=4_52   Bus2=4_53   Length=10   units=m Linecode=Line_95
New Line.MVLateral4.54  Bus1=4_53   Bus2=4_54   Length=10   units=m Linecode=Line_95
New Line.MVLateral4.55  Bus1=4_54   Bus2=4_55   Length=10   units=m Linecode=Line_95
New Line.MVLateral4.56  Bus1=4_55   Bus2=4_56   Length=10   units=m Linecode=Line_95
New Line.MVLateral4.57  Bus1=4_56   Bus2=4_57   Length=10   units=m Linecode=Line_95
New Line.MVLateral4.58  Bus1=4_57   Bus2=4_58   Length=10   units=m Linecode=Line_95
New Line.MVLateral4.59  Bus1=4_58   Bus2=4_59   Length=10   units=m Linecode=Line_95
New Line.MVLateral4.60  Bus1=4_59   Bus2=4_60   Length=10   units=m Linecode=Line_95
New Line.MVLateral4.61  Bus1=4_60   Bus2=4_61   Length=10   units=m Linecode=Line_95
New Line.MVLateral4.62  Bus1=4_61   Bus2=4_62   Length=10   units=m Linecode=Line_95
New Line.MVLateral4.63  Bus1=4_62   Bus2=4_63   Length=10   units=m Linecode=Line_95
New Line.MVLateral4.64  Bus1=4_63   Bus2=4_64   Length=10   units=m Linecode=Line_95
New Line.MVLateral4.65  Bus1=4_64   Bus2=4_65   Length=10   units=m Linecode=Line_95
New Line.MVLateral4.66  Bus1=4_65   Bus2=4_66   Length=10   units=m Linecode=Line_95
New Line.MVLateral4.67  Bus1=4_66   Bus2=4_67   Length=10   units=m Linecode=Line_95
New Line.MVLateral4.68  Bus1=4_67   Bus2=4_68   Length=10   units=m Linecode=Line_95
New Line.MVLateral4.69  Bus1=4_68   Bus2=4_69   Length=10   units=m Linecode=Line_95
New Line.MVLateral4.70  Bus1=4_69   Bus2=4_70   Length=10   units=m Linecode=Line_95
New Line.MVLateral4.71  Bus1=4_70   Bus2=4_71   Length=10   units=m Linecode=Line_95
New Line.MVLateral4.72  Bus1=4_71   Bus2=4_72   Length=10   units=m Linecode=Line_95
New Line.MVLateral4.73  Bus1=4_72   Bus2=4_73   Length=10   units=m Linecode=Line_95
New Line.MVLateral4.74  Bus1=4_73   Bus2=4_74   Length=10   units=m Linecode=Line_95
New Line.MVLateral4.75  Bus1=4_74   Bus2=4_75   Length=10   units=m Linecode=Line_95
New Line.MVLateral4.76  Bus1=4_75   Bus2=4_76   Length=10   units=m Linecode=Line_95
New Line.MVLateral4.77  Bus1=4_76   Bus2=4_77   Length=10   units=m Linecode=Line_95
New Line.MVLateral4.78  Bus1=4_77   Bus2=4_78   Length=10   units=m Linecode=Line_95
New Line.MVLateral4.79  Bus1=4_78   Bus2=4_79   Length=10   units=m Linecode=Line_95
New Line.MVLateral4.80  Bus1=4_79   Bus2=4_80   Length=10   units=m Linecode=Line_95
New Line.MVLateral4.81  Bus1=4_80   Bus2=4_81   Length=10   units=m Linecode=Line_95
New Line.MVLateral4.82  Bus1=4_81   Bus2=4_82   Length=10   units=m Linecode=Line_95
New Line.MVLateral4.83  Bus1=4_82   Bus2=4_83   Length=10   units=m Linecode=Line_95
New Line.MVLateral4.84  Bus1=4_83   Bus2=4_84   Length=10   units=m Linecode=Line_95
New Line.MVLateral4.85  Bus1=4_84   Bus2=4_85   Length=10   units=m Linecode=Line_95
New Line.MVLateral4.86  Bus1=4_85   Bus2=4_86   Length=10   units=m Linecode=Line_95
New Line.MVLateral4.87  Bus1=4_86   Bus2=4_87   Length=10   units=m Linecode=Line_95
New Line.MVLateral4.88  Bus1=4_87   Bus2=4_88   Length=10   units=m Linecode=Line_95
New Line.MVLateral4.89  Bus1=4_88   Bus2=4_89   Length=10   units=m Linecode=Line_95
New Line.MVLateral4.90  Bus1=4_89   Bus2=4_90   Length=10   units=m Linecode=Line_95
New Line.MVLateral4.91  Bus1=4_90   Bus2=4_91   Length=10   units=m Linecode=Line_95
New Line.MVLateral4.92  Bus1=4_91   Bus2=4_92   Length=10   units=m Linecode=Line_95
New Line.MVLateral4.93  Bus1=4_92   Bus2=4_93   Length=10   units=m Linecode=Line_95
New Line.MVLateral4.94  Bus1=4_93   Bus2=4_94   Length=10   units=m Linecode=Line_95
New Line.MVLateral4.95  Bus1=4_94   Bus2=4_95   Length=10   units=m Linecode=Line_95
New Line.MVLateral4.96  Bus1=4_95   Bus2=4_96   Length=10   units=m Linecode=Line_95
New Line.MVLateral4.97  Bus1=4_96   Bus2=4_97   Length=10   units=m Linecode=Line_95
New Line.MVLateral4.98  Bus1=4_97   Bus2=4_98   Length=10   units=m Linecode=Line_95
New Line.MVLateral4.99  Bus1=4_98   Bus2=4_99   Length=10   units=m Linecode=Line_95
                        
New Line.MVLateral4.100 Bus1=4_99   Bus2=4_100  Length=10   units=m Linecode=Line_95
New Line.MVLateral4.101 Bus1=4_100  Bus2=4_101  Length=10   units=m Linecode=Line_95
New Line.MVLateral4.102 Bus1=4_101  Bus2=4_102  Length=10   units=m Linecode=Line_95
New Line.MVLateral4.103 Bus1=4_102  Bus2=4_103  Length=10   units=m Linecode=Line_95
New Line.MVLateral4.104 Bus1=4_103  Bus2=4_104  Length=10   units=m Linecode=Line_95
New Line.MVLateral4.105 Bus1=4_104  Bus2=4_105  Length=10   units=m Linecode=Line_95
New Line.MVLateral4.106 Bus1=4_105  Bus2=4_106  Length=10   units=m Linecode=Line_95
New Line.MVLateral4.107 Bus1=4_106  Bus2=4_107  Length=10   units=m Linecode=Line_95
New Line.MVLateral4.108 Bus1=4_107  Bus2=4_108  Length=10   units=m Linecode=Line_95
New Line.MVLateral4.109 Bus1=4_108  Bus2=4_109  Length=10   units=m Linecode=Line_95
New Line.MVLateral4.110 Bus1=4_109  Bus2=4_110  Length=10   units=m Linecode=Line_95
New Line.MVLateral4.111 Bus1=4_110  Bus2=4_111  Length=10   units=m Linecode=Line_95
New Line.MVLateral4.112 Bus1=4_111  Bus2=4_112  Length=10   units=m Linecode=Line_95
New Line.MVLateral4.113 Bus1=4_112  Bus2=4_113  Length=10   units=m Linecode=Line_95
New Line.MVLateral4.114 Bus1=4_113  Bus2=4_114  Length=10   units=m Linecode=Line_95
New Line.MVLateral4.115 Bus1=4_114  Bus2=4_115  Length=10   units=m Linecode=Line_95
New Line.MVLateral4.116 Bus1=4_115  Bus2=4_116  Length=10   units=m Linecode=Line_95
New Line.MVLateral4.117 Bus1=4_116  Bus2=4_117  Length=10   units=m Linecode=Line_95
New Line.MVLateral4.118 Bus1=4_117  Bus2=4_118  Length=10   units=m Linecode=Line_95
New Line.MVLateral4.119 Bus1=4_118  Bus2=4_119  Length=10   units=m Linecode=Line_95
New Line.MVLateral4.120 Bus1=4_119  Bus2=4_120  Length=10   units=m Linecode=Line_95
New Line.MVLateral4.121 Bus1=4_120  Bus2=4_121  Length=10   units=m Linecode=Line_95
New Line.MVLateral4.122 Bus1=4_121  Bus2=4_122  Length=10   units=m Linecode=Line_95
New Line.MVLateral4.123 Bus1=4_122  Bus2=4_123  Length=10   units=m Linecode=Line_95
New Line.MVLateral4.124 Bus1=4_123  Bus2=4_124  Length=10   units=m Linecode=Line_95
New Line.MVLateral4.125 Bus1=4_124  Bus2=4_125  Length=10   units=m Linecode=Line_95
New Line.MVLateral4.126 Bus1=4_125  Bus2=4_126  Length=10   units=m Linecode=Line_95
New Line.MVLateral4.127 Bus1=4_126  Bus2=4_127  Length=10   units=m Linecode=Line_95
New Line.MVLateral4.128 Bus1=4_127  Bus2=4_128  Length=10   units=m Linecode=Line_95
New Line.MVLateral4.129 Bus1=4_128  Bus2=4_129  Length=10   units=m Linecode=Line_95
New Line.MVLateral4.130 Bus1=4_129  Bus2=4_130  Length=10   units=m Linecode=Line_95
New Line.MVLateral4.131 Bus1=4_130  Bus2=4_131  Length=10   units=m Linecode=Line_95
New Line.MVLateral4.132 Bus1=4_131  Bus2=4_132  Length=10   units=m Linecode=Line_95
New Line.MVLateral4.133 Bus1=4_132  Bus2=4_133  Length=10   units=m Linecode=Line_95
New Line.MVLateral4.134 Bus1=4_133  Bus2=4_134  Length=10   units=m Linecode=Line_95
New Line.MVLateral4.135 Bus1=4_134  Bus2=4_135  Length=10   units=m Linecode=Line_95
New Line.MVLateral4.136 Bus1=4_135  Bus2=4_136  Length=10   units=m Linecode=Line_95
                        
New Line.MVLateral4.137 Bus1=4_136  Bus2=4_137  Length=10   units=m Linecode=Line_95
New Line.MVLateral4.138 Bus1=4_137  Bus2=4_138  Length=10   units=m Linecode=Line_95
New Line.MVLateral4.139 Bus1=4_138  Bus2=4_139  Length=10   units=m Linecode=Line_95
New Line.MVLateral4.140 Bus1=4_139  Bus2=4_140  Length=10   units=m Linecode=Line_95
New Line.MVLateral4.141 Bus1=4_140  Bus2=4_141  Length=10   units=m Linecode=Line_95
New Line.MVLateral4.142 Bus1=4_141  Bus2=4_142  Length=10   units=m Linecode=Line_95
New Line.MVLateral4.143 Bus1=4_142  Bus2=4_143  Length=10   units=m Linecode=Line_95
New Line.MVLateral4.144 Bus1=4_143  Bus2=4_144  Length=10   units=m Linecode=Line_95
                        
New Line.MVLateral4.145 Bus1=4_144  Bus2=4_145  Length=10   units=m Linecode=Line_95
New Line.MVLateral4.146 Bus1=4_145  Bus2=4_146  Length=10   units=m Linecode=Line_95
New Line.MVLateral4.147 Bus1=4_146  Bus2=4_147  Length=10   units=m Linecode=Line_95
New Line.MVLateral4.148 Bus1=4_147  Bus2=4_148  Length=10   units=m Linecode=Line_95
New Line.MVLateral4.149 Bus1=4_148  Bus2=4_149  Length=10   units=m Linecode=Line_95
New Line.MVLateral4.150 Bus1=4_149  Bus2=4_150  Length=10   units=m Linecode=Line_95
New Line.MVLateral4.151 Bus1=4_150  Bus2=4_151  Length=10   units=m Linecode=Line_95
New Line.MVLateral4.152 Bus1=4_151  Bus2=4_152  Length=10   units=m Linecode=Line_95
New Line.MVLateral4.153 Bus1=4_152  Bus2=4_153  Length=10   units=m Linecode=Line_95
New Line.MVLateral4.154 Bus1=4_153  Bus2=4_154  Length=10   units=m Linecode=Line_95
New Line.MVLateral4.155 Bus1=4_154  Bus2=4_155  Length=10   units=m Linecode=Line_95
New Line.MVLateral4.156 Bus1=4_155  Bus2=4_156  Length=10   units=m Linecode=Line_95
New Line.MVLateral4.157 Bus1=4_156  Bus2=4_157  Length=10   units=m Linecode=Line_95
New Line.MVLateral4.158 Bus1=4_157  Bus2=4_158  Length=10   units=m Linecode=Line_95
New Line.MVLateral4.159 Bus1=4_158  Bus2=4_159  Length=10   units=m Linecode=Line_95
New Line.MVLateral4.160 Bus1=4_159  Bus2=4_160  Length=10   units=m Linecode=Line_95
New Line.MVLateral4.161 Bus1=4_160  Bus2=4_161  Length=10   units=m Linecode=Line_95
New Line.MVLateral4.162 Bus1=4_161  Bus2=4_162  Length=10   units=m Linecode=Line_95
New Line.MVLateral4.163 Bus1=4_162  Bus2=4_163  Length=10   units=m Linecode=Line_95
New Line.MVLateral4.164 Bus1=4_163  Bus2=4_164  Length=10   units=m Linecode=Line_95
New Line.MVLateral4.165 Bus1=4_164  Bus2=4_165  Length=10   units=m Linecode=Line_95
New Line.MVLateral4.166 Bus1=4_165  Bus2=4_166  Length=10   units=m Linecode=Line_95
New Line.MVLateral4.167 Bus1=4_166  Bus2=4_167  Length=10   units=m Linecode=Line_95
New Line.MVLateral4.168 Bus1=4_167  Bus2=4_168  Length=10   units=m Linecode=Line_95
New Line.MVLateral4.169 Bus1=4_168  Bus2=4_169  Length=10   units=m Linecode=Line_95
New Line.MVLateral4.170 Bus1=4_169  Bus2=4_170  Length=10   units=m Linecode=Line_95
                        
New Line.MVLateral4.171 Bus1=4_170  Bus2=4_171  Length=10   units=m Linecode=Line_95
New Line.MVLateral4.172 Bus1=4_171  Bus2=4_172  Length=10   units=m Linecode=Line_95
New Line.MVLateral4.173 Bus1=4_172  Bus2=4_173  Length=10   units=m Linecode=Line_95
New Line.MVLateral4.174 Bus1=4_173  Bus2=4_174  Length=10   units=m Linecode=Line_95
New Line.MVLateral4.175 Bus1=4_174  Bus2=4_175  Length=10   units=m Linecode=Line_95
New Line.MVLateral4.176 Bus1=4_175  Bus2=4_176  Length=10   units=m Linecode=Line_95
New Line.MVLateral4.177 Bus1=4_176  Bus2=4_177  Length=10   units=m Linecode=Line_95
New Line.MVLateral4.178 Bus1=4_177  Bus2=4_178  Length=10   units=m Linecode=Line_95
New Line.MVLateral4.179 Bus1=4_178  Bus2=4_179  Length=10   units=m Linecode=Line_95
New Line.MVLateral4.180 Bus1=4_179  Bus2=4_180  Length=10   units=m Linecode=Line_95
New Line.MVLateral4.181 Bus1=4_180  Bus2=4_181  Length=10   units=m Linecode=Line_95
New Line.MVLateral4.182 Bus1=4_181  Bus2=4_182  Length=10   units=m Linecode=Line_95
New Line.MVLateral4.183 Bus1=4_182  Bus2=4_183  Length=10   units=m Linecode=Line_95
New Line.MVLateral4.184 Bus1=4_183  Bus2=4_184  Length=10   units=m Linecode=Line_95
New Line.MVLateral4.185 Bus1=4_184  Bus2=4_185  Length=10   units=m Linecode=Line_95
New Line.MVLateral4.186 Bus1=4_185  Bus2=4_186  Length=10   units=m Linecode=Line_95
New Line.MVLateral4.187 Bus1=4_186  Bus2=4_187  Length=10   units=m Linecode=Line_95
New Line.MVLateral4.188 Bus1=4_187  Bus2=4_188  Length=10   units=m Linecode=Line_95
New Line.MVLateral4.189 Bus1=4_188  Bus2=4_189  Length=10   units=m Linecode=Line_95
New Line.MVLateral4.190 Bus1=4_189  Bus2=4_190  Length=10   units=m Linecode=Line_95
New Line.MVLateral4.191 Bus1=4_190  Bus2=4_191  Length=10   units=m Linecode=Line_95
New Line.MVLateral4.192 Bus1=4_191  Bus2=4_192  Length=10   units=m Linecode=Line_95
New Line.MVLateral4.193 Bus1=4_192  Bus2=4_193  Length=10   units=m Linecode=Line_95
New Line.MVLateral4.194 Bus1=4_193  Bus2=4_194  Length=10   units=m Linecode=Line_95
New Line.MVLateral4.195 Bus1=4_194  Bus2=4_195  Length=10   units=m Linecode=Line_95
New Line.MVLateral4.196 Bus1=4_195  Bus2=4_196  Length=10   units=m Linecode=Line_95
New Line.MVLateral4.197 Bus1=4_196  Bus2=4_197  Length=10   units=m Linecode=Line_95
New Line.MVLateral4.198 Bus1=4_197  Bus2=4_198  Length=10   units=m Linecode=Line_95
New Line.MVLateral4.199 Bus1=4_198  Bus2=4_199  Length=10   units=m Linecode=Line_95
New Line.MVLateral4.200 Bus1=4_199  Bus2=4_200  Length=10   units=m Linecode=Line_95
New Line.MVLateral4.201 Bus1=4_200  Bus2=4_201  Length=10   units=m Linecode=Line_95
New Line.MVLateral4.202 Bus1=4_201  Bus2=4_202  Length=10   units=m Linecode=Line_95
New Line.MVLateral4.203 Bus1=4_202  Bus2=4_203  Length=10   units=m Linecode=Line_95
New Line.MVLateral4.204 Bus1=4_203  Bus2=4_204  Length=10   units=m Linecode=Line_95
New Line.MVLateral4.205 Bus1=4_204  Bus2=4_205  Length=10   units=m Linecode=Line_95
New Line.MVLateral4.206 Bus1=4_205  Bus2=4_206  Length=10   units=m Linecode=Line_95
New Line.MVLateral4.207 Bus1=4_206  Bus2=4_207  Length=10   units=m Linecode=Line_95
New Line.MVLateral4.208 Bus1=4_207  Bus2=4_208  Length=10   units=m Linecode=Line_95
New Line.MVLateral4.209 Bus1=4_208  Bus2=4_209  Length=10   units=m Linecode=Line_95
New Line.MVLateral4.210 Bus1=4_209  Bus2=4_210  Length=10   units=m Linecode=Line_95
New Line.MVLateral4.211 Bus1=4_210  Bus2=4_211  Length=10   units=m Linecode=Line_95
New Line.MVLateral4.212 Bus1=4_211  Bus2=4_212  Length=10   units=m Linecode=Line_95
New Line.MVLateral4.213 Bus1=4_212  Bus2=4_213  Length=10   units=m Linecode=Line_95
New Line.MVLateral4.214 Bus1=4_213  Bus2=4_214  Length=10   units=m Linecode=Line_95
New Line.MVLateral4.215 Bus1=4_214  Bus2=4_215  Length=10   units=m Linecode=Line_95
New Line.MVLateral4_end_1 Bus1=2_215 Bus2=2_216 units=m Linecode=Line_95 Length=10             
                        
New Line.MVFeeder4.217  Bus1=4_45   Bus2=4_217  Length=10   units=m Linecode=Line_185
New Line.MVFeeder4.218  Bus1=4_217  Bus2=4_218  Length=10   units=m Linecode=Line_185
New Line.MVFeeder4.219  Bus1=4_218  Bus2=4_219  Length=10   units=m Linecode=Line_185
New Line.MVFeeder4.220  Bus1=4_219  Bus2=4_220  Length=10   units=m Linecode=Line_185
New Line.MVFeeder4.221  Bus1=4_220  Bus2=4_221  Length=10   units=m Linecode=Line_185
New Line.MVFeeder4.222  Bus1=4_221  Bus2=4_222  Length=10   units=m Linecode=Line_185
New Line.MVFeeder4.223  Bus1=4_222  Bus2=4_223  Length=10   units=m Linecode=Line_185
New Line.MVFeeder4.224  Bus1=4_223  Bus2=4_224  Length=10   units=m Linecode=Line_185
New Line.MVFeeder4.225  Bus1=4_224  Bus2=4_225  Length=10   units=m Linecode=Line_185
New Line.MVFeeder4.226  Bus1=4_225  Bus2=4_226  Length=10   units=m Linecode=Line_185
New Line.MVFeeder4.227  Bus1=4_226  Bus2=4_227  Length=10   units=m Linecode=Line_185
New Line.MVFeeder4.228  Bus1=4_227  Bus2=4_228  Length=10   units=m Linecode=Line_185
New Line.MVFeeder4.229  Bus1=4_228  Bus2=4_229  Length=10   units=m Linecode=Line_185
New Line.MVFeeder4.230  Bus1=4_229  Bus2=4_230  Length=10   units=m Linecode=Line_185
New Line.MVFeeder4.231  Bus1=4_230  Bus2=4_231  Length=10   units=m Linecode=Line_185
New Line.MVFeeder4.232  Bus1=4_231  Bus2=4_232  Length=10   units=m Linecode=Line_185
New Line.MVFeeder4.233  Bus1=4_232  Bus2=4_233  Length=10   units=m Linecode=Line_185
New Line.MVFeeder4.234  Bus1=4_233  Bus2=4_234  Length=10   units=m Linecode=Line_185
New Line.MVFeeder4.235  Bus1=4_234  Bus2=4_235  Length=10   units=m Linecode=Line_185
New Line.MVFeeder4.236  Bus1=4_235  Bus2=4_236  Length=10   units=m Linecode=Line_185
New Line.MVFeeder4.237  Bus1=4_236  Bus2=4_237  Length=10   units=m Linecode=Line_185
New Line.MVFeeder4.238  Bus1=4_237  Bus2=4_238  Length=10   units=m Linecode=Line_185
New Line.MVFeeder4.239  Bus1=4_238  Bus2=4_239  Length=10   units=m Linecode=Line_185
New Line.MVFeeder4.240  Bus1=4_239  Bus2=4_240  Length=10   units=m Linecode=Line_185
New Line.MVFeeder4.241  Bus1=4_240  Bus2=4_241  Length=10   units=m Linecode=Line_185
New Line.MVFeeder4.242  Bus1=4_241  Bus2=4_242  Length=10   units=m Linecode=Line_185
New Line.MVFeeder4.243  Bus1=4_242  Bus2=4_243  Length=10   units=m Linecode=Line_185
New Line.MVFeeder4.244  Bus1=4_243  Bus2=4_244  Length=10   units=m Linecode=Line_185
New Line.MVFeeder4.245  Bus1=4_244  Bus2=4_245  Length=10   units=m Linecode=Line_185
New Line.MVFeeder4.246  Bus1=4_245  Bus2=4_246  Length=10   units=m Linecode=Line_185
New Line.MVFeeder4.247  Bus1=4_246  Bus2=4_247  Length=10   units=m Linecode=Line_185
New Line.MVFeeder4.248  Bus1=4_247  Bus2=4_248  Length=10   units=m Linecode=Line_185
New Line.MVFeeder4.249  Bus1=4_248  Bus2=4_249  Length=10   units=m Linecode=Line_185
New Line.MVFeeder4.250  Bus1=4_249  Bus2=4_250  Length=10   units=m Linecode=Line_185
New Line.MVFeeder4.251  Bus1=4_250  Bus2=4_251  Length=10   units=m Linecode=Line_185
New Line.MVFeeder4.252  Bus1=4_251  Bus2=4_252  Length=10   units=m Linecode=Line_185
New Line.MVFeeder4.253  Bus1=4_252  Bus2=4_253  Length=10   units=m Linecode=Line_185
New Line.MVFeeder4.254  Bus1=4_253  Bus2=4_254  Length=10   units=m Linecode=Line_185
New Line.MVFeeder4.255  Bus1=4_254  Bus2=4_255  Length=10   units=m Linecode=Line_185
New Line.MVFeeder4.256  Bus1=4_255  Bus2=4_256  Length=10   units=m Linecode=Line_185
New Line.MVFeeder4.257  Bus1=4_256  Bus2=4_257  Length=10   units=m Linecode=Line_185
New Line.MVFeeder4.258  Bus1=4_257  Bus2=4_258  Length=10   units=m Linecode=Line_185
New Line.MVFeeder4.259  Bus1=4_258  Bus2=4_259  Length=10   units=m Linecode=Line_185
New Line.MVFeeder4.260  Bus1=4_259  Bus2=4_260  Length=10   units=m Linecode=Line_185
New Line.MVFeeder4.261  Bus1=4_260  Bus2=4_261  Length=10   units=m Linecode=Line_185
New Line.MVFeeder4.262  Bus1=4_261  Bus2=4_262  Length=10   units=m Linecode=Line_185
New Line.MVFeeder4.263  Bus1=4_262  Bus2=4_263  Length=10   units=m Linecode=Line_185
New Line.MVFeeder4.264  Bus1=4_263  Bus2=4_264  Length=10   units=m Linecode=Line_185
New Line.MVFeeder4.265  Bus1=4_264  Bus2=4_265  Length=10   units=m Linecode=Line_185
New Line.MVFeeder4.266  Bus1=4_265  Bus2=4_266  Length=10   units=m Linecode=Line_185
New Line.MVFeeder4.267  Bus1=4_266  Bus2=4_267  Length=10   units=m Linecode=Line_185
New Line.MVFeeder4.268  Bus1=4_267  Bus2=4_268  Length=10   units=m Linecode=Line_185
New Line.MVFeeder4.269  Bus1=4_268  Bus2=4_269  Length=10   units=m Linecode=Line_185
New Line.MVFeeder4.270  Bus1=4_269  Bus2=4_270  Length=10   units=m Linecode=Line_185
New Line.MVFeeder4.271  Bus1=4_270  Bus2=4_271  Length=10   units=m Linecode=Line_185
New Line.MVFeeder4.272  Bus1=4_271  Bus2=4_272  Length=10   units=m Linecode=Line_185
New Line.MVFeeder4.273  Bus1=4_272  Bus2=4_273  Length=10   units=m Linecode=Line_185
New Line.MVFeeder4.274  Bus1=4_273  Bus2=4_274  Length=10   units=m Linecode=Line_185
New Line.MVFeeder4.275  Bus1=4_274  Bus2=4_275  Length=10   units=m Linecode=Line_185
New Line.MVFeeder4.276  Bus1=4_275  Bus2=4_276  Length=10   units=m Linecode=Line_185
New Line.MVFeeder4.277  Bus1=4_276  Bus2=4_277  Length=10   units=m Linecode=Line_185
New Line.MVFeeder4.278  Bus1=4_277  Bus2=4_278  Length=10   units=m Linecode=Line_185
New Line.MVFeeder4.279  Bus1=4_278  Bus2=4_279  Length=10   units=m Linecode=Line_185
New Line.MVFeeder4.280  Bus1=4_279  Bus2=4_280  Length=10   units=m Linecode=Line_185
New Line.MVFeeder4.281  Bus1=4_280  Bus2=4_281  Length=10   units=m Linecode=Line_185
New Line.MVFeeder4.282  Bus1=4_281  Bus2=4_282  Length=10   units=m Linecode=Line_185
New Line.MVFeeder4.283  Bus1=4_282  Bus2=4_283  Length=10   units=m Linecode=Line_185
New Line.MVFeeder4.284  Bus1=4_283  Bus2=4_284  Length=10   units=m Linecode=Line_185
New Line.MVFeeder4.285  Bus1=4_284  Bus2=4_285  Length=10   units=m Linecode=Line_185
New Line.MVFeeder4.286  Bus1=4_285  Bus2=4_286  Length=10   units=m Linecode=Line_185
New Line.MVFeeder4.287  Bus1=4_286  Bus2=4_287  Length=10   units=m Linecode=Line_185
New Line.MVFeeder4.288  Bus1=4_287  Bus2=4_288  Length=10   units=m Linecode=Line_185
New Line.MVFeeder4.289  Bus1=4_288  Bus2=4_289  Length=10   units=m Linecode=Line_185
New Line.MVFeeder4.290  Bus1=4_289  Bus2=4_290  Length=10   units=m Linecode=Line_185
New Line.MVFeeder4.291  Bus1=4_290  Bus2=4_291  Length=10   units=m Linecode=Line_185
New Line.MVFeeder4.292  Bus1=4_291  Bus2=4_292  Length=10   units=m Linecode=Line_185
New Line.MVFeeder4.293  Bus1=4_292  Bus2=4_293  Length=10   units=m Linecode=Line_185
New Line.MVFeeder4.294  Bus1=4_293  Bus2=4_294  Length=10   units=m Linecode=Line_185
New Line.MVFeeder4.295  Bus1=4_294  Bus2=4_295  Length=10   units=m Linecode=Line_185
New Line.MVFeeder4.296  Bus1=4_295  Bus2=4_296  Length=10   units=m Linecode=Line_185
New Line.MVFeeder4.297  Bus1=4_296  Bus2=4_297  Length=10   units=m Linecode=Line_185
New Line.MVFeeder4.298  Bus1=4_297  Bus2=4_298  Length=10   units=m Linecode=Line_185
New Line.MVFeeder4.299  Bus1=4_298  Bus2=4_299  Length=10   units=m Linecode=Line_185
New Line.MVFeeder4.300  Bus1=4_299  Bus2=4_300  Length=10   units=m Linecode=Line_185
New Line.MVFeeder4.301  Bus1=4_300  Bus2=4_301  Length=10   units=m Linecode=Line_185
New Line.MVFeeder4.302  Bus1=4_301  Bus2=4_302  Length=10   units=m Linecode=Line_185
New Line.MVFeeder4.303  Bus1=4_302  Bus2=4_303  Length=10   units=m Linecode=Line_185
New Line.MVFeeder4.304  Bus1=4_303  Bus2=4_304  Length=10   units=m Linecode=Line_185
New Line.MVFeeder4.305  Bus1=4_304  Bus2=4_305  Length=10   units=m Linecode=Line_185
                        
                        
New Line.MVLateral4_start_2 Bus1=4_304  Bus2=4_306  Length=10   units=m Linecode=Line_95
New Line.MVLateral4.307 Bus1=4_306  Bus2=4_307  Length=10   units=m Linecode=Line_95
New Line.MVLateral4.308 Bus1=4_307  Bus2=4_308  Length=10   units=m Linecode=Line_95
New Line.MVLateral4.309 Bus1=4_308  Bus2=4_309  Length=10   units=m Linecode=Line_95
New Line.MVLateral4.310 Bus1=4_309  Bus2=4_310  Length=10   units=m Linecode=Line_95
New Line.MVLateral4.311 Bus1=4_310  Bus2=4_311  Length=10   units=m Linecode=Line_95
New Line.MVLateral4.312 Bus1=4_311  Bus2=4_312  Length=10   units=m Linecode=Line_95
New Line.MVLateral4.313 Bus1=4_312  Bus2=4_313  Length=10   units=m Linecode=Line_95
New Line.MVLateral4.314 Bus1=4_313  Bus2=4_314  Length=10   units=m Linecode=Line_95
New Line.MVLateral4.315 Bus1=4_314  Bus2=4_315  Length=10   units=m Linecode=Line_95
New Line.MVLateral4.316 Bus1=4_315  Bus2=4_316  Length=10   units=m Linecode=Line_95
New Line.MVLateral4.317 Bus1=4_316  Bus2=4_317  Length=10   units=m Linecode=Line_95
New Line.MVLateral4.318 Bus1=4_317  Bus2=4_318  Length=10   units=m Linecode=Line_95
New Line.MVLateral4.319 Bus1=4_318  Bus2=4_319  Length=10   units=m Linecode=Line_95
New Line.MVLateral4.320 Bus1=4_319  Bus2=4_320  Length=10   units=m Linecode=Line_95
New Line.MVLateral4.321 Bus1=4_320  Bus2=4_321  Length=10   units=m Linecode=Line_95
New Line.MVLateral4.322 Bus1=4_321  Bus2=4_322  Length=10   units=m Linecode=Line_95
New Line.MVLateral4.323 Bus1=4_322  Bus2=4_323  Length=10   units=m Linecode=Line_95
New Line.MVLateral4.324 Bus1=4_323  Bus2=4_324  Length=10   units=m Linecode=Line_95
New Line.MVLateral4.325 Bus1=4_324  Bus2=4_325  Length=10   units=m Linecode=Line_95
New Line.MVLateral4.326 Bus1=4_325  Bus2=4_326  Length=10   units=m Linecode=Line_95
New Line.MVLateral4.327 Bus1=4_326  Bus2=4_327  Length=10   units=m Linecode=Line_95
New Line.MVLateral4.328 Bus1=4_327  Bus2=4_328  Length=10   units=m Linecode=Line_95
New Line.MVLateral4.329 Bus1=4_328  Bus2=4_329  Length=10   units=m Linecode=Line_95
New Line.MVLateral4.330 Bus1=4_329  Bus2=4_330  Length=10   units=m Linecode=Line_95
New Line.MVLateral4.331 Bus1=4_330  Bus2=4_331  Length=10   units=m Linecode=Line_95
New Line.MVLateral4.332 Bus1=4_331  Bus2=4_332  Length=10   units=m Linecode=Line_95
New Line.MVLateral4.333 Bus1=4_332  Bus2=4_333  Length=10   units=m Linecode=Line_95
New Line.MVLateral4.334 Bus1=4_333  Bus2=4_334  Length=10   units=m Linecode=Line_95
New Line.MVLateral4.335 Bus1=4_334  Bus2=4_335  Length=10   units=m Linecode=Line_95
New Line.MVLateral4.336 Bus1=4_335  Bus2=4_336  Length=10   units=m Linecode=Line_95
New Line.MVLateral4.337 Bus1=4_336  Bus2=4_337  Length=10   units=m Linecode=Line_95
New Line.MVLateral4.338 Bus1=4_337  Bus2=4_338  Length=10   units=m Linecode=Line_95
New Line.MVLateral4.339 Bus1=4_338  Bus2=4_339  Length=10   units=m Linecode=Line_95
New Line.MVLateral4.340 Bus1=4_339  Bus2=4_340  Length=10   units=m Linecode=Line_95
New Line.MVLateral4.341 Bus1=4_340  Bus2=4_341  Length=10   units=m Linecode=Line_95
New Line.MVLateral4.342 Bus1=4_341  Bus2=4_342  Length=10   units=m Linecode=Line_95
New Line.MVLateral4.343 Bus1=4_342  Bus2=4_343  Length=10   units=m Linecode=Line_95
New Line.MVLateral4.344 Bus1=4_343  Bus2=4_344  Length=10   units=m Linecode=Line_95
New Line.MVLateral4.345 Bus1=4_344  Bus2=4_345  Length=10   units=m Linecode=Line_95
New Line.MVLateral4.346 Bus1=4_345  Bus2=4_346  Length=10   units=m Linecode=Line_95
New Line.MVLateral4.347 Bus1=4_346  Bus2=4_347  Length=10   units=m Linecode=Line_95