New Line.Consumer2_1 Bus1=2_52.1 Bus2=Consumer2_1.1 Length=0.04 units=km Linecode=Line_25
New Line.Consumer2_2 Bus1=2_101.2 Bus2=Consumer2_2.1 Length=0.04 units=km Linecode=Line_25
New Line.Consumer2_3 Bus1=2_150.3 Bus2=Consumer2_3.1 Length=0.04 units=km Linecode=Line_25
New Line.Consumer2_4 Bus1=2_199.1 Bus2=Consumer2_4.1 Length=0.04 units=km Linecode=Line_25

New Line.Consumer2_5 Bus1=2_350.2 Bus2=Consumer2_5.1 Length=0.04 units=km Linecode=Line_25
New Line.Consumer2_6 Bus1=2_368.3 Bus2=Consumer2_6.1 Length=0.04 units=km Linecode=Line_25
New Line.Consumer2_7 Bus1=2_386.1 Bus2=Consumer2_7.1 Length=0.04 units=km Linecode=Line_25
New Line.Consumer2_8 Bus1=2_404.2 Bus2=Consumer2_8.1 Length=0.04 units=km Linecode=Line_25
New Line.Consumer2_9 Bus1=2_422.3 Bus2=Consumer2_9.1 Length=0.04 units=km Linecode=Line_25
New Line.Consumer2_10 Bus1=2_440.1 Bus2=Consumer2_10.1 Length=0.04 units=km Linecode=Line_25
New Line.Consumer2_11 Bus1=2_458.2 Bus2=Consumer2_11.1 Length=0.04 units=km Linecode=Line_25
New Line.Consumer2_12 Bus1=2_476.3 Bus2=Consumer2_12.1 Length=0.04 units=km Linecode=Line_25
New Line.Consumer2_13 Bus1=2_494.1 Bus2=Consumer2_13.1 Length=0.04 units=km Linecode=Line_25
New Line.Consumer2_14 Bus1=2_512.2 Bus2=Consumer2_14.1 Length=0.04 units=km Linecode=Line_25
New Line.Consumer2_15 Bus1=2_530.3 Bus2=Consumer2_15.1 Length=0.04 units=km Linecode=Line_25

New Line.Consumer2_16 Bus1=2_648.1 Bus2=Consumer2_16.1 Length=0.04 units=km Linecode=Line_25
New Line.Consumer2_17 Bus1=2_670.2 Bus2=Consumer2_17.1 Length=0.04 units=km Linecode=Line_25
New Line.Consumer2_18 Bus1=2_691.1 Bus2=Consumer2_18.1 Length=0.04 units=km Linecode=Line_25
New Line.Consumer2_19 Bus1=2_712.2 Bus2=Consumer2_19.1 Length=0.04 units=km Linecode=Line_25
New Line.Consumer2_20 Bus1=2_733.1 Bus2=Consumer2_20.1 Length=0.04 units=km Linecode=Line_25
New Line.Consumer2_21 Bus1=2_754.2 Bus2=Consumer2_21.1 Length=0.04 units=km Linecode=Line_25
New Line.Consumer2_22 Bus1=2_775.1 Bus2=Consumer2_22.1 Length=0.04 units=km Linecode=Line_25
New Line.Consumer2_23 Bus1=2_796.2 Bus2=Consumer2_23.1 Length=0.04 units=km Linecode=Line_25
New Line.Consumer2_24 Bus1=2_817.1 Bus2=Consumer2_24.1 Length=0.04 units=km Linecode=Line_25

New Line.Consumer2_25 Bus1=2_845.1 Bus2=Consumer2_25.1 Length=0.04 units=km Linecode=Line_25
New Line.Consumer2_26 Bus1=2_867.2 Bus2=Consumer2_26.1 Length=0.04 units=km Linecode=Line_25
New Line.Consumer2_27 Bus1=2_888.1 Bus2=Consumer2_27.1 Length=0.04 units=km Linecode=Line_25
New Line.Consumer2_28 Bus1=2_909.2 Bus2=Consumer2_28.1 Length=0.04 units=km Linecode=Line_25
New Line.Consumer2_29 Bus1=2_930.1 Bus2=Consumer2_29.1 Length=0.04 units=km Linecode=Line_25
New Line.Consumer2_30 Bus1=2_952.2 Bus2=Consumer2_30.1 Length=0.04 units=km Linecode=Line_25
New Line.Consumer2_31 Bus1=2_974.1 Bus2=Consumer2_31.1 Length=0.04 units=km Linecode=Line_25
New Line.Consumer2_32 Bus1=2_996.2 Bus2=Consumer2_32.1 Length=0.04 units=km Linecode=Line_25
New Line.Consumer2_33 Bus1=2_1018.1 Bus2=Consumer2_33.1 Length=0.04 units=km Linecode=Line_25

