New Line.Consumer3_1 Bus1=3_52.1 Bus2=Consumer3_1.1 Length=0.04 units=km Linecode=Line_25
New Line.Consumer3_2 Bus1=3_101.2 Bus2=Consumer3_2.1 Length=0.04 units=km Linecode=Line_25
New Line.Consumer3_3 Bus1=3_150.3 Bus2=Consumer3_3.1 Length=0.04 units=km Linecode=Line_25
New Line.Consumer3_4 Bus1=3_199.1 Bus2=Consumer3_4.1 Length=0.04 units=km Linecode=Line_25

New Line.Consumer3_5 Bus1=3_350.2 Bus2=Consumer3_5.1 Length=0.04 units=km Linecode=Line_25
New Line.Consumer3_6 Bus1=3_368.3 Bus2=Consumer3_6.1 Length=0.04 units=km Linecode=Line_25
New Line.Consumer3_7 Bus1=3_386.1 Bus2=Consumer3_7.1 Length=0.04 units=km Linecode=Line_25
New Line.Consumer3_8 Bus1=3_404.2 Bus2=Consumer3_8.1 Length=0.04 units=km Linecode=Line_25
New Line.Consumer3_9 Bus1=3_422.3 Bus2=Consumer3_9.1 Length=0.04 units=km Linecode=Line_25
New Line.Consumer3_10 Bus1=3_440.1 Bus2=Consumer3_10.1 Length=0.04 units=km Linecode=Line_25
New Line.Consumer3_11 Bus1=3_458.2 Bus2=Consumer3_11.1 Length=0.04 units=km Linecode=Line_25
New Line.Consumer3_12 Bus1=3_476.3 Bus2=Consumer3_12.1 Length=0.04 units=km Linecode=Line_25
New Line.Consumer3_13 Bus1=3_494.1 Bus2=Consumer3_13.1 Length=0.04 units=km Linecode=Line_25
New Line.Consumer3_14 Bus1=3_512.2 Bus2=Consumer3_14.1 Length=0.04 units=km Linecode=Line_25
New Line.Consumer3_15 Bus1=3_530.3 Bus2=Consumer3_15.1 Length=0.04 units=km Linecode=Line_25

New Line.Consumer3_16 Bus1=3_648.1 Bus2=Consumer3_16.1 Length=0.04 units=km Linecode=Line_25
New Line.Consumer3_17 Bus1=3_670.2 Bus2=Consumer3_17.1 Length=0.04 units=km Linecode=Line_25
New Line.Consumer3_18 Bus1=3_691.1 Bus2=Consumer3_18.1 Length=0.04 units=km Linecode=Line_25
New Line.Consumer3_19 Bus1=3_712.2 Bus2=Consumer3_19.1 Length=0.04 units=km Linecode=Line_25
New Line.Consumer3_20 Bus1=3_733.1 Bus2=Consumer3_20.1 Length=0.04 units=km Linecode=Line_25
New Line.Consumer3_21 Bus1=3_754.2 Bus2=Consumer3_21.1 Length=0.04 units=km Linecode=Line_25
New Line.Consumer3_22 Bus1=3_775.1 Bus2=Consumer3_22.1 Length=0.04 units=km Linecode=Line_25
New Line.Consumer3_23 Bus1=3_796.2 Bus2=Consumer3_23.1 Length=0.04 units=km Linecode=Line_25
New Line.Consumer3_24 Bus1=3_817.1 Bus2=Consumer3_24.1 Length=0.04 units=km Linecode=Line_25

New Line.Consumer3_25 Bus1=3_845.1 Bus2=Consumer3_25.1 Length=0.04 units=km Linecode=Line_25
New Line.Consumer3_26 Bus1=3_867.2 Bus2=Consumer3_26.1 Length=0.04 units=km Linecode=Line_25
New Line.Consumer3_27 Bus1=3_888.1 Bus2=Consumer3_27.1 Length=0.04 units=km Linecode=Line_25
New Line.Consumer3_28 Bus1=3_909.2 Bus2=Consumer3_28.1 Length=0.04 units=km Linecode=Line_25
New Line.Consumer3_29 Bus1=3_930.1 Bus2=Consumer3_29.1 Length=0.04 units=km Linecode=Line_25
New Line.Consumer3_30 Bus1=3_952.2 Bus2=Consumer3_30.1 Length=0.04 units=km Linecode=Line_25
New Line.Consumer3_31 Bus1=3_974.1 Bus2=Consumer3_31.1 Length=0.04 units=km Linecode=Line_25
New Line.Consumer3_32 Bus1=3_996.2 Bus2=Consumer3_32.1 Length=0.04 units=km Linecode=Line_25
New Line.Consumer3_33 Bus1=3_1018.1 Bus2=Consumer3_33.1 Length=0.04 units=km Linecode=Line_25

