New Line.MVFeeder3.1    Bus1=Main_Busbar    Bus2=3_1    Length=10   units=m Linecode=Line_185
New Line.MVFeeder3.2    Bus1=3_1    Bus2=3_2    Length=10   units=m Linecode=Line_185
New Line.MVFeeder3.3    Bus1=3_2    Bus2=3_3    Length=10   units=m Linecode=Line_185
New Line.MVFeeder3.4    Bus1=3_3    Bus2=3_4    Length=10   units=m Linecode=Line_185
New Line.MVFeeder3.5    Bus1=3_4    Bus2=3_5    Length=10   units=m Linecode=Line_185
New Line.MVFeeder3.6    Bus1=3_5    Bus2=3_6    Length=10   units=m Linecode=Line_185
New Line.MVFeeder3.7    Bus1=3_6    Bus2=3_7    Length=10   units=m Linecode=Line_185
New Line.MVFeeder3.8    Bus1=3_7    Bus2=3_8    Length=10   units=m Linecode=Line_185
New Line.MVFeeder3.9    Bus1=3_8    Bus2=3_9    Length=10   units=m Linecode=Line_185
New Line.MVFeeder3.10   Bus1=3_9    Bus2=3_10   Length=10   units=m Linecode=Line_185
New Line.MVFeeder3.11   Bus1=3_10   Bus2=3_11   Length=10   units=m Linecode=Line_185
New Line.MVFeeder3.12   Bus1=3_11   Bus2=3_12   Length=10   units=m Linecode=Line_185
New Line.MVFeeder3.13   Bus1=3_12   Bus2=3_13   Length=10   units=m Linecode=Line_185
New Line.MVFeeder3.14   Bus1=3_13   Bus2=3_14   Length=10   units=m Linecode=Line_185
New Line.MVFeeder3.15   Bus1=3_14   Bus2=3_15   Length=10   units=m Linecode=Line_185
New Line.MVFeeder3.16   Bus1=3_15   Bus2=3_16   Length=10   units=m Linecode=Line_185
New Line.MVFeeder3.17   Bus1=3_16   Bus2=3_17   Length=10   units=m Linecode=Line_185
New Line.MVFeeder3.18   Bus1=3_17   Bus2=3_18   Length=10   units=m Linecode=Line_185
New Line.MVFeeder3.19   Bus1=3_18   Bus2=3_19   Length=10   units=m Linecode=Line_185
New Line.MVFeeder3.20   Bus1=3_19   Bus2=3_20   Length=10   units=m Linecode=Line_185
New Line.MVFeeder3.21   Bus1=3_20   Bus2=3_21   Length=10   units=m Linecode=Line_185
New Line.MVFeeder3.22   Bus1=3_21   Bus2=3_22   Length=10   units=m Linecode=Line_185
New Line.MVFeeder3.23   Bus1=3_22   Bus2=3_23   Length=10   units=m Linecode=Line_185
New Line.MVFeeder3.24   Bus1=3_23   Bus2=3_24   Length=10   units=m Linecode=Line_185
New Line.MVFeeder3.25   Bus1=3_24   Bus2=3_25   Length=10   units=m Linecode=Line_185
New Line.MVFeeder3.26   Bus1=3_25   Bus2=3_26   Length=10   units=m Linecode=Line_185
New Line.MVFeeder3.27   Bus1=3_26   Bus2=3_27   Length=10   units=m Linecode=Line_185
New Line.MVFeeder3.28   Bus1=3_27   Bus2=3_28   Length=10   units=m Linecode=Line_185
New Line.MVFeeder3.29   Bus1=3_28   Bus2=3_29   Length=10   units=m Linecode=Line_185
New Line.MVFeeder3.30   Bus1=3_29   Bus2=3_30   Length=10   units=m Linecode=Line_185
                        
New Line.MVFeeder3.31   Bus1=3_30   Bus2=3_31   Length=10   units=m Linecode=Line_185
New Line.MVFeeder3.32   Bus1=3_31   Bus2=3_32   Length=10   units=m Linecode=Line_185
New Line.MVFeeder3.33   Bus1=3_32   Bus2=3_33   Length=10   units=m Linecode=Line_185
New Line.MVFeeder3.34   Bus1=3_33   Bus2=3_34   Length=10   units=m Linecode=Line_185
New Line.MVFeeder3.35   Bus1=3_34   Bus2=3_35   Length=10   units=m Linecode=Line_185
                        
New Line.MVFeeder3.36   Bus1=3_35   Bus2=3_36   Length=10   units=m Linecode=Line_185
                        
New Line.MVFeeder3.37   Bus1=3_36   Bus2=3_37   Length=10   units=m Linecode=Line_185
New Line.MVFeeder3.38   Bus1=3_37   Bus2=3_38   Length=10   units=m Linecode=Line_185
New Line.MVFeeder3.39   Bus1=3_38   Bus2=3_39   Length=10   units=m Linecode=Line_185
New Line.MVFeeder3.40   Bus1=3_39   Bus2=3_40   Length=10   units=m Linecode=Line_185
New Line.MVFeeder3.41   Bus1=3_40   Bus2=3_41   Length=10   units=m Linecode=Line_185
New Line.MVFeeder3.42   Bus1=3_41   Bus2=3_42   Length=10   units=m Linecode=Line_185
New Line.MVFeeder3.43   Bus1=3_42   Bus2=3_43   Length=10   units=m Linecode=Line_185
New Line.MVFeeder3.44   Bus1=3_43   Bus2=3_44   Length=10   units=m Linecode=Line_185
New Line.MVFeeder3.45   Bus1=3_44   Bus2=3_45   Length=10   units=m Linecode=Line_185
                        
                        
New Line.MVLateral3_start_1 Bus1=3_44   Bus2=3_46   Length=10   units=m Linecode=Line_95
New Line.MVLateral3.47  Bus1=3_46   Bus2=3_47   Length=10   units=m Linecode=Line_95
New Line.MVLateral3.48  Bus1=3_47   Bus2=3_48   Length=10   units=m Linecode=Line_95
New Line.MVLateral3.49  Bus1=3_48   Bus2=3_49   Length=10   units=m Linecode=Line_95
New Line.MVLateral3.50  Bus1=3_49   Bus2=3_50   Length=10   units=m Linecode=Line_95
New Line.MVLateral3.51  Bus1=3_50   Bus2=3_51   Length=10   units=m Linecode=Line_95
New Line.MVLateral3.52  Bus1=3_51   Bus2=3_52   Length=10   units=m Linecode=Line_95
New Line.MVLateral3.53  Bus1=3_52   Bus2=3_53   Length=10   units=m Linecode=Line_95
New Line.MVLateral3.54  Bus1=3_53   Bus2=3_54   Length=10   units=m Linecode=Line_95
New Line.MVLateral3.55  Bus1=3_54   Bus2=3_55   Length=10   units=m Linecode=Line_95
New Line.MVLateral3.56  Bus1=3_55   Bus2=3_56   Length=10   units=m Linecode=Line_95
New Line.MVLateral3.57  Bus1=3_56   Bus2=3_57   Length=10   units=m Linecode=Line_95
New Line.MVLateral3.58  Bus1=3_57   Bus2=3_58   Length=10   units=m Linecode=Line_95
New Line.MVLateral3.59  Bus1=3_58   Bus2=3_59   Length=10   units=m Linecode=Line_95
New Line.MVLateral3.60  Bus1=3_59   Bus2=3_60   Length=10   units=m Linecode=Line_95
New Line.MVLateral3.61  Bus1=3_60   Bus2=3_61   Length=10   units=m Linecode=Line_95
New Line.MVLateral3.62  Bus1=3_61   Bus2=3_62   Length=10   units=m Linecode=Line_95
New Line.MVLateral3.63  Bus1=3_62   Bus2=3_63   Length=10   units=m Linecode=Line_95
New Line.MVLateral3.64  Bus1=3_63   Bus2=3_64   Length=10   units=m Linecode=Line_95
New Line.MVLateral3.65  Bus1=3_64   Bus2=3_65   Length=10   units=m Linecode=Line_95
New Line.MVLateral3.66  Bus1=3_65   Bus2=3_66   Length=10   units=m Linecode=Line_95
New Line.MVLateral3.67  Bus1=3_66   Bus2=3_67   Length=10   units=m Linecode=Line_95
New Line.MVLateral3.68  Bus1=3_67   Bus2=3_68   Length=10   units=m Linecode=Line_95
New Line.MVLateral3.69  Bus1=3_68   Bus2=3_69   Length=10   units=m Linecode=Line_95
New Line.MVLateral3.70  Bus1=3_69   Bus2=3_70   Length=10   units=m Linecode=Line_95
New Line.MVLateral3.71  Bus1=3_70   Bus2=3_71   Length=10   units=m Linecode=Line_95
New Line.MVLateral3.72  Bus1=3_71   Bus2=3_72   Length=10   units=m Linecode=Line_95
New Line.MVLateral3.73  Bus1=3_72   Bus2=3_73   Length=10   units=m Linecode=Line_95
New Line.MVLateral3.74  Bus1=3_73   Bus2=3_74   Length=10   units=m Linecode=Line_95
New Line.MVLateral3.75  Bus1=3_74   Bus2=3_75   Length=10   units=m Linecode=Line_95
New Line.MVLateral3.76  Bus1=3_75   Bus2=3_76   Length=10   units=m Linecode=Line_95
New Line.MVLateral3.77  Bus1=3_76   Bus2=3_77   Length=10   units=m Linecode=Line_95
New Line.MVLateral3.78  Bus1=3_77   Bus2=3_78   Length=10   units=m Linecode=Line_95
New Line.MVLateral3.79  Bus1=3_78   Bus2=3_79   Length=10   units=m Linecode=Line_95
New Line.MVLateral3.80  Bus1=3_79   Bus2=3_80   Length=10   units=m Linecode=Line_95
New Line.MVLateral3.81  Bus1=3_80   Bus2=3_81   Length=10   units=m Linecode=Line_95
New Line.MVLateral3.82  Bus1=3_81   Bus2=3_82   Length=10   units=m Linecode=Line_95
New Line.MVLateral3.83  Bus1=3_82   Bus2=3_83   Length=10   units=m Linecode=Line_95
New Line.MVLateral3.84  Bus1=3_83   Bus2=3_84   Length=10   units=m Linecode=Line_95
New Line.MVLateral3.85  Bus1=3_84   Bus2=3_85   Length=10   units=m Linecode=Line_95
New Line.MVLateral3.86  Bus1=3_85   Bus2=3_86   Length=10   units=m Linecode=Line_95
New Line.MVLateral3.87  Bus1=3_86   Bus2=3_87   Length=10   units=m Linecode=Line_95
New Line.MVLateral3.88  Bus1=3_87   Bus2=3_88   Length=10   units=m Linecode=Line_95
New Line.MVLateral3.89  Bus1=3_88   Bus2=3_89   Length=10   units=m Linecode=Line_95
New Line.MVLateral3.90  Bus1=3_89   Bus2=3_90   Length=10   units=m Linecode=Line_95
New Line.MVLateral3.91  Bus1=3_90   Bus2=3_91   Length=10   units=m Linecode=Line_95
New Line.MVLateral3.92  Bus1=3_91   Bus2=3_92   Length=10   units=m Linecode=Line_95
New Line.MVLateral3.93  Bus1=3_92   Bus2=3_93   Length=10   units=m Linecode=Line_95
New Line.MVLateral3.94  Bus1=3_93   Bus2=3_94   Length=10   units=m Linecode=Line_95
New Line.MVLateral3.95  Bus1=3_94   Bus2=3_95   Length=10   units=m Linecode=Line_95
New Line.MVLateral3.96  Bus1=3_95   Bus2=3_96   Length=10   units=m Linecode=Line_95
New Line.MVLateral3.97  Bus1=3_96   Bus2=3_97   Length=10   units=m Linecode=Line_95
New Line.MVLateral3.98  Bus1=3_97   Bus2=3_98   Length=10   units=m Linecode=Line_95
New Line.MVLateral3.99  Bus1=3_98   Bus2=3_99   Length=10   units=m Linecode=Line_95
                        
New Line.MVLateral3.100 Bus1=3_99   Bus2=3_100  Length=10   units=m Linecode=Line_95
New Line.MVLateral3.101 Bus1=3_100  Bus2=3_101  Length=10   units=m Linecode=Line_95
New Line.MVLateral3.102 Bus1=3_101  Bus2=3_102  Length=10   units=m Linecode=Line_95
New Line.MVLateral3.103 Bus1=3_102  Bus2=3_103  Length=10   units=m Linecode=Line_95
New Line.MVLateral3.104 Bus1=3_103  Bus2=3_104  Length=10   units=m Linecode=Line_95
New Line.MVLateral3.105 Bus1=3_104  Bus2=3_105  Length=10   units=m Linecode=Line_95
New Line.MVLateral3.106 Bus1=3_105  Bus2=3_106  Length=10   units=m Linecode=Line_95
New Line.MVLateral3.107 Bus1=3_106  Bus2=3_107  Length=10   units=m Linecode=Line_95
New Line.MVLateral3.108 Bus1=3_107  Bus2=3_108  Length=10   units=m Linecode=Line_95
New Line.MVLateral3.109 Bus1=3_108  Bus2=3_109  Length=10   units=m Linecode=Line_95
New Line.MVLateral3.110 Bus1=3_109  Bus2=3_110  Length=10   units=m Linecode=Line_95
New Line.MVLateral3.111 Bus1=3_110  Bus2=3_111  Length=10   units=m Linecode=Line_95
New Line.MVLateral3.112 Bus1=3_111  Bus2=3_112  Length=10   units=m Linecode=Line_95
New Line.MVLateral3.113 Bus1=3_112  Bus2=3_113  Length=10   units=m Linecode=Line_95
New Line.MVLateral3.114 Bus1=3_113  Bus2=3_114  Length=10   units=m Linecode=Line_95
New Line.MVLateral3.115 Bus1=3_114  Bus2=3_115  Length=10   units=m Linecode=Line_95
New Line.MVLateral3.116 Bus1=3_115  Bus2=3_116  Length=10   units=m Linecode=Line_95
New Line.MVLateral3.117 Bus1=3_116  Bus2=3_117  Length=10   units=m Linecode=Line_95
New Line.MVLateral3.118 Bus1=3_117  Bus2=3_118  Length=10   units=m Linecode=Line_95
New Line.MVLateral3.119 Bus1=3_118  Bus2=3_119  Length=10   units=m Linecode=Line_95
New Line.MVLateral3.120 Bus1=3_119  Bus2=3_120  Length=10   units=m Linecode=Line_95
New Line.MVLateral3.121 Bus1=3_120  Bus2=3_121  Length=10   units=m Linecode=Line_95
New Line.MVLateral3.122 Bus1=3_121  Bus2=3_122  Length=10   units=m Linecode=Line_95
New Line.MVLateral3.123 Bus1=3_122  Bus2=3_123  Length=10   units=m Linecode=Line_95
New Line.MVLateral3.124 Bus1=3_123  Bus2=3_124  Length=10   units=m Linecode=Line_95
New Line.MVLateral3.125 Bus1=3_124  Bus2=3_125  Length=10   units=m Linecode=Line_95
New Line.MVLateral3.126 Bus1=3_125  Bus2=3_126  Length=10   units=m Linecode=Line_95
New Line.MVLateral3.127 Bus1=3_126  Bus2=3_127  Length=10   units=m Linecode=Line_95
New Line.MVLateral3.128 Bus1=3_127  Bus2=3_128  Length=10   units=m Linecode=Line_95
New Line.MVLateral3.129 Bus1=3_128  Bus2=3_129  Length=10   units=m Linecode=Line_95
New Line.MVLateral3.130 Bus1=3_129  Bus2=3_130  Length=10   units=m Linecode=Line_95
New Line.MVLateral3.131 Bus1=3_130  Bus2=3_131  Length=10   units=m Linecode=Line_95
New Line.MVLateral3.132 Bus1=3_131  Bus2=3_132  Length=10   units=m Linecode=Line_95
New Line.MVLateral3.133 Bus1=3_132  Bus2=3_133  Length=10   units=m Linecode=Line_95
New Line.MVLateral3.134 Bus1=3_133  Bus2=3_134  Length=10   units=m Linecode=Line_95
New Line.MVLateral3.135 Bus1=3_134  Bus2=3_135  Length=10   units=m Linecode=Line_95
New Line.MVLateral3.136 Bus1=3_135  Bus2=3_136  Length=10   units=m Linecode=Line_95
                        
New Line.MVLateral3.137 Bus1=3_136  Bus2=3_137  Length=10   units=m Linecode=Line_95
New Line.MVLateral3.138 Bus1=3_137  Bus2=3_138  Length=10   units=m Linecode=Line_95
New Line.MVLateral3.139 Bus1=3_138  Bus2=3_139  Length=10   units=m Linecode=Line_95
New Line.MVLateral3.140 Bus1=3_139  Bus2=3_140  Length=10   units=m Linecode=Line_95
New Line.MVLateral3.141 Bus1=3_140  Bus2=3_141  Length=10   units=m Linecode=Line_95
New Line.MVLateral3.142 Bus1=3_141  Bus2=3_142  Length=10   units=m Linecode=Line_95
New Line.MVLateral3.143 Bus1=3_142  Bus2=3_143  Length=10   units=m Linecode=Line_95
New Line.MVLateral3.144 Bus1=3_143  Bus2=3_144  Length=10   units=m Linecode=Line_95
                        
New Line.MVLateral3.145 Bus1=3_144  Bus2=3_145  Length=10   units=m Linecode=Line_95
New Line.MVLateral3.146 Bus1=3_145  Bus2=3_146  Length=10   units=m Linecode=Line_95
New Line.MVLateral3.147 Bus1=3_146  Bus2=3_147  Length=10   units=m Linecode=Line_95
New Line.MVLateral3.148 Bus1=3_147  Bus2=3_148  Length=10   units=m Linecode=Line_95
New Line.MVLateral3.149 Bus1=3_148  Bus2=3_149  Length=10   units=m Linecode=Line_95
New Line.MVLateral3.150 Bus1=3_149  Bus2=3_150  Length=10   units=m Linecode=Line_95
New Line.MVLateral3.151 Bus1=3_150  Bus2=3_151  Length=10   units=m Linecode=Line_95
New Line.MVLateral3.152 Bus1=3_151  Bus2=3_152  Length=10   units=m Linecode=Line_95
New Line.MVLateral3.153 Bus1=3_152  Bus2=3_153  Length=10   units=m Linecode=Line_95
New Line.MVLateral3.154 Bus1=3_153  Bus2=3_154  Length=10   units=m Linecode=Line_95
New Line.MVLateral3.155 Bus1=3_154  Bus2=3_155  Length=10   units=m Linecode=Line_95
New Line.MVLateral3.156 Bus1=3_155  Bus2=3_156  Length=10   units=m Linecode=Line_95
New Line.MVLateral3.157 Bus1=3_156  Bus2=3_157  Length=10   units=m Linecode=Line_95
New Line.MVLateral3.158 Bus1=3_157  Bus2=3_158  Length=10   units=m Linecode=Line_95
New Line.MVLateral3.159 Bus1=3_158  Bus2=3_159  Length=10   units=m Linecode=Line_95
New Line.MVLateral3.160 Bus1=3_159  Bus2=3_160  Length=10   units=m Linecode=Line_95
New Line.MVLateral3.161 Bus1=3_160  Bus2=3_161  Length=10   units=m Linecode=Line_95
New Line.MVLateral3.162 Bus1=3_161  Bus2=3_162  Length=10   units=m Linecode=Line_95
New Line.MVLateral3.163 Bus1=3_162  Bus2=3_163  Length=10   units=m Linecode=Line_95
New Line.MVLateral3.164 Bus1=3_163  Bus2=3_164  Length=10   units=m Linecode=Line_95
New Line.MVLateral3.165 Bus1=3_164  Bus2=3_165  Length=10   units=m Linecode=Line_95
New Line.MVLateral3.166 Bus1=3_165  Bus2=3_166  Length=10   units=m Linecode=Line_95
New Line.MVLateral3.167 Bus1=3_166  Bus2=3_167  Length=10   units=m Linecode=Line_95
New Line.MVLateral3.168 Bus1=3_167  Bus2=3_168  Length=10   units=m Linecode=Line_95
New Line.MVLateral3.169 Bus1=3_168  Bus2=3_169  Length=10   units=m Linecode=Line_95
New Line.MVLateral3.170 Bus1=3_169  Bus2=3_170  Length=10   units=m Linecode=Line_95
                        
New Line.MVLateral3.171 Bus1=3_170  Bus2=3_171  Length=10   units=m Linecode=Line_95
New Line.MVLateral3.172 Bus1=3_171  Bus2=3_172  Length=10   units=m Linecode=Line_95
New Line.MVLateral3.173 Bus1=3_172  Bus2=3_173  Length=10   units=m Linecode=Line_95
New Line.MVLateral3.174 Bus1=3_173  Bus2=3_174  Length=10   units=m Linecode=Line_95
New Line.MVLateral3.175 Bus1=3_174  Bus2=3_175  Length=10   units=m Linecode=Line_95
New Line.MVLateral3.176 Bus1=3_175  Bus2=3_176  Length=10   units=m Linecode=Line_95
New Line.MVLateral3.177 Bus1=3_176  Bus2=3_177  Length=10   units=m Linecode=Line_95
New Line.MVLateral3.178 Bus1=3_177  Bus2=3_178  Length=10   units=m Linecode=Line_95
New Line.MVLateral3.179 Bus1=3_178  Bus2=3_179  Length=10   units=m Linecode=Line_95
New Line.MVLateral3.180 Bus1=3_179  Bus2=3_180  Length=10   units=m Linecode=Line_95
New Line.MVLateral3.181 Bus1=3_180  Bus2=3_181  Length=10   units=m Linecode=Line_95
New Line.MVLateral3.182 Bus1=3_181  Bus2=3_182  Length=10   units=m Linecode=Line_95
New Line.MVLateral3.183 Bus1=3_182  Bus2=3_183  Length=10   units=m Linecode=Line_95
New Line.MVLateral3.184 Bus1=3_183  Bus2=3_184  Length=10   units=m Linecode=Line_95
New Line.MVLateral3.185 Bus1=3_184  Bus2=3_185  Length=10   units=m Linecode=Line_95
New Line.MVLateral3.186 Bus1=3_185  Bus2=3_186  Length=10   units=m Linecode=Line_95
New Line.MVLateral3.187 Bus1=3_186  Bus2=3_187  Length=10   units=m Linecode=Line_95
New Line.MVLateral3.188 Bus1=3_187  Bus2=3_188  Length=10   units=m Linecode=Line_95
New Line.MVLateral3.189 Bus1=3_188  Bus2=3_189  Length=10   units=m Linecode=Line_95
New Line.MVLateral3.190 Bus1=3_189  Bus2=3_190  Length=10   units=m Linecode=Line_95
New Line.MVLateral3.191 Bus1=3_190  Bus2=3_191  Length=10   units=m Linecode=Line_95
New Line.MVLateral3.192 Bus1=3_191  Bus2=3_192  Length=10   units=m Linecode=Line_95
New Line.MVLateral3.193 Bus1=3_192  Bus2=3_193  Length=10   units=m Linecode=Line_95
New Line.MVLateral3.194 Bus1=3_193  Bus2=3_194  Length=10   units=m Linecode=Line_95
New Line.MVLateral3.195 Bus1=3_194  Bus2=3_195  Length=10   units=m Linecode=Line_95
New Line.MVLateral3.196 Bus1=3_195  Bus2=3_196  Length=10   units=m Linecode=Line_95
New Line.MVLateral3.197 Bus1=3_196  Bus2=3_197  Length=10   units=m Linecode=Line_95
New Line.MVLateral3.198 Bus1=3_197  Bus2=3_198  Length=10   units=m Linecode=Line_95
New Line.MVLateral3.199 Bus1=3_198  Bus2=3_199  Length=10   units=m Linecode=Line_95
New Line.MVLateral3.200 Bus1=3_199  Bus2=3_200  Length=10   units=m Linecode=Line_95
New Line.MVLateral3.201 Bus1=3_200  Bus2=3_201  Length=10   units=m Linecode=Line_95
New Line.MVLateral3.202 Bus1=3_201  Bus2=3_202  Length=10   units=m Linecode=Line_95
New Line.MVLateral3.203 Bus1=3_202  Bus2=3_203  Length=10   units=m Linecode=Line_95
New Line.MVLateral3.204 Bus1=3_203  Bus2=3_204  Length=10   units=m Linecode=Line_95
New Line.MVLateral3.205 Bus1=3_204  Bus2=3_205  Length=10   units=m Linecode=Line_95
New Line.MVLateral3.206 Bus1=3_205  Bus2=3_206  Length=10   units=m Linecode=Line_95
New Line.MVLateral3.207 Bus1=3_206  Bus2=3_207  Length=10   units=m Linecode=Line_95
New Line.MVLateral3.208 Bus1=3_207  Bus2=3_208  Length=10   units=m Linecode=Line_95
New Line.MVLateral3.209 Bus1=3_208  Bus2=3_209  Length=10   units=m Linecode=Line_95
New Line.MVLateral3.210 Bus1=3_209  Bus2=3_210  Length=10   units=m Linecode=Line_95
New Line.MVLateral3.211 Bus1=3_210  Bus2=3_211  Length=10   units=m Linecode=Line_95
New Line.MVLateral3.212 Bus1=3_211  Bus2=3_212  Length=10   units=m Linecode=Line_95
New Line.MVLateral3.213 Bus1=3_212  Bus2=3_213  Length=10   units=m Linecode=Line_95
New Line.MVLateral3.214 Bus1=3_213  Bus2=3_214  Length=10   units=m Linecode=Line_95
New Line.MVLateral3.215 Bus1=3_214  Bus2=3_215  Length=10   units=m Linecode=Line_95
New Line.MVLateral3_end_1 Bus1=2_215 Bus2=2_216 units=m Linecode=Line_95 Length=10
                        
                        
New Line.MVFeeder3.217  Bus1=3_45   Bus2=3_217  Length=10   units=m Linecode=Line_185
New Line.MVFeeder3.218  Bus1=3_217  Bus2=3_218  Length=10   units=m Linecode=Line_185
New Line.MVFeeder3.219  Bus1=3_218  Bus2=3_219  Length=10   units=m Linecode=Line_185
New Line.MVFeeder3.220  Bus1=3_219  Bus2=3_220  Length=10   units=m Linecode=Line_185
New Line.MVFeeder3.221  Bus1=3_220  Bus2=3_221  Length=10   units=m Linecode=Line_185
New Line.MVFeeder3.222  Bus1=3_221  Bus2=3_222  Length=10   units=m Linecode=Line_185
New Line.MVFeeder3.223  Bus1=3_222  Bus2=3_223  Length=10   units=m Linecode=Line_185
New Line.MVFeeder3.224  Bus1=3_223  Bus2=3_224  Length=10   units=m Linecode=Line_185
New Line.MVFeeder3.225  Bus1=3_224  Bus2=3_225  Length=10   units=m Linecode=Line_185
New Line.MVFeeder3.226  Bus1=3_225  Bus2=3_226  Length=10   units=m Linecode=Line_185
New Line.MVFeeder3.227  Bus1=3_226  Bus2=3_227  Length=10   units=m Linecode=Line_185
New Line.MVFeeder3.228  Bus1=3_227  Bus2=3_228  Length=10   units=m Linecode=Line_185
New Line.MVFeeder3.229  Bus1=3_228  Bus2=3_229  Length=10   units=m Linecode=Line_185
New Line.MVFeeder3.230  Bus1=3_229  Bus2=3_230  Length=10   units=m Linecode=Line_185
New Line.MVFeeder3.231  Bus1=3_230  Bus2=3_231  Length=10   units=m Linecode=Line_185
New Line.MVFeeder3.232  Bus1=3_231  Bus2=3_232  Length=10   units=m Linecode=Line_185
New Line.MVFeeder3.233  Bus1=3_232  Bus2=3_233  Length=10   units=m Linecode=Line_185
New Line.MVFeeder3.234  Bus1=3_233  Bus2=3_234  Length=10   units=m Linecode=Line_185
New Line.MVFeeder3.235  Bus1=3_234  Bus2=3_235  Length=10   units=m Linecode=Line_185
New Line.MVFeeder3.236  Bus1=3_235  Bus2=3_236  Length=10   units=m Linecode=Line_185
New Line.MVFeeder3.237  Bus1=3_236  Bus2=3_237  Length=10   units=m Linecode=Line_185
New Line.MVFeeder3.238  Bus1=3_237  Bus2=3_238  Length=10   units=m Linecode=Line_185
New Line.MVFeeder3.239  Bus1=3_238  Bus2=3_239  Length=10   units=m Linecode=Line_185
New Line.MVFeeder3.240  Bus1=3_239  Bus2=3_240  Length=10   units=m Linecode=Line_185
New Line.MVFeeder3.241  Bus1=3_240  Bus2=3_241  Length=10   units=m Linecode=Line_185
New Line.MVFeeder3.242  Bus1=3_241  Bus2=3_242  Length=10   units=m Linecode=Line_185
New Line.MVFeeder3.243  Bus1=3_242  Bus2=3_243  Length=10   units=m Linecode=Line_185
New Line.MVFeeder3.244  Bus1=3_243  Bus2=3_244  Length=10   units=m Linecode=Line_185
New Line.MVFeeder3.245  Bus1=3_244  Bus2=3_245  Length=10   units=m Linecode=Line_185
New Line.MVFeeder3.246  Bus1=3_245  Bus2=3_246  Length=10   units=m Linecode=Line_185
New Line.MVFeeder3.247  Bus1=3_246  Bus2=3_247  Length=10   units=m Linecode=Line_185
New Line.MVFeeder3.248  Bus1=3_247  Bus2=3_248  Length=10   units=m Linecode=Line_185
New Line.MVFeeder3.249  Bus1=3_248  Bus2=3_249  Length=10   units=m Linecode=Line_185
New Line.MVFeeder3.250  Bus1=3_249  Bus2=3_250  Length=10   units=m Linecode=Line_185
New Line.MVFeeder3.251  Bus1=3_250  Bus2=3_251  Length=10   units=m Linecode=Line_185
New Line.MVFeeder3.252  Bus1=3_251  Bus2=3_252  Length=10   units=m Linecode=Line_185
New Line.MVFeeder3.253  Bus1=3_252  Bus2=3_253  Length=10   units=m Linecode=Line_185
New Line.MVFeeder3.254  Bus1=3_253  Bus2=3_254  Length=10   units=m Linecode=Line_185
New Line.MVFeeder3.255  Bus1=3_254  Bus2=3_255  Length=10   units=m Linecode=Line_185
New Line.MVFeeder3.256  Bus1=3_255  Bus2=3_256  Length=10   units=m Linecode=Line_185
New Line.MVFeeder3.257  Bus1=3_256  Bus2=3_257  Length=10   units=m Linecode=Line_185
New Line.MVFeeder3.258  Bus1=3_257  Bus2=3_258  Length=10   units=m Linecode=Line_185
New Line.MVFeeder3.259  Bus1=3_258  Bus2=3_259  Length=10   units=m Linecode=Line_185
New Line.MVFeeder3.260  Bus1=3_259  Bus2=3_260  Length=10   units=m Linecode=Line_185
New Line.MVFeeder3.261  Bus1=3_260  Bus2=3_261  Length=10   units=m Linecode=Line_185
New Line.MVFeeder3.262  Bus1=3_261  Bus2=3_262  Length=10   units=m Linecode=Line_185
New Line.MVFeeder3.263  Bus1=3_262  Bus2=3_263  Length=10   units=m Linecode=Line_185
New Line.MVFeeder3.264  Bus1=3_263  Bus2=3_264  Length=10   units=m Linecode=Line_185
New Line.MVFeeder3.265  Bus1=3_264  Bus2=3_265  Length=10   units=m Linecode=Line_185
New Line.MVFeeder3.266  Bus1=3_265  Bus2=3_266  Length=10   units=m Linecode=Line_185
New Line.MVFeeder3.267  Bus1=3_266  Bus2=3_267  Length=10   units=m Linecode=Line_185
New Line.MVFeeder3.268  Bus1=3_267  Bus2=3_268  Length=10   units=m Linecode=Line_185
New Line.MVFeeder3.269  Bus1=3_268  Bus2=3_269  Length=10   units=m Linecode=Line_185
New Line.MVFeeder3.270  Bus1=3_269  Bus2=3_270  Length=10   units=m Linecode=Line_185
New Line.MVFeeder3.271  Bus1=3_270  Bus2=3_271  Length=10   units=m Linecode=Line_185
New Line.MVFeeder3.272  Bus1=3_271  Bus2=3_272  Length=10   units=m Linecode=Line_185
New Line.MVFeeder3.273  Bus1=3_272  Bus2=3_273  Length=10   units=m Linecode=Line_185
New Line.MVFeeder3.274  Bus1=3_273  Bus2=3_274  Length=10   units=m Linecode=Line_185
New Line.MVFeeder3.275  Bus1=3_274  Bus2=3_275  Length=10   units=m Linecode=Line_185
New Line.MVFeeder3.276  Bus1=3_275  Bus2=3_276  Length=10   units=m Linecode=Line_185
New Line.MVFeeder3.277  Bus1=3_276  Bus2=3_277  Length=10   units=m Linecode=Line_185
New Line.MVFeeder3.278  Bus1=3_277  Bus2=3_278  Length=10   units=m Linecode=Line_185
New Line.MVFeeder3.279  Bus1=3_278  Bus2=3_279  Length=10   units=m Linecode=Line_185
New Line.MVFeeder3.280  Bus1=3_279  Bus2=3_280  Length=10   units=m Linecode=Line_185
New Line.MVFeeder3.281  Bus1=3_280  Bus2=3_281  Length=10   units=m Linecode=Line_185
New Line.MVFeeder3.282  Bus1=3_281  Bus2=3_282  Length=10   units=m Linecode=Line_185
New Line.MVFeeder3.283  Bus1=3_282  Bus2=3_283  Length=10   units=m Linecode=Line_185
New Line.MVFeeder3.284  Bus1=3_283  Bus2=3_284  Length=10   units=m Linecode=Line_185
New Line.MVFeeder3.285  Bus1=3_284  Bus2=3_285  Length=10   units=m Linecode=Line_185
New Line.MVFeeder3.286  Bus1=3_285  Bus2=3_286  Length=10   units=m Linecode=Line_185
New Line.MVFeeder3.287  Bus1=3_286  Bus2=3_287  Length=10   units=m Linecode=Line_185
New Line.MVFeeder3.288  Bus1=3_287  Bus2=3_288  Length=10   units=m Linecode=Line_185
New Line.MVFeeder3.289  Bus1=3_288  Bus2=3_289  Length=10   units=m Linecode=Line_185
New Line.MVFeeder3.290  Bus1=3_289  Bus2=3_290  Length=10   units=m Linecode=Line_185
New Line.MVFeeder3.291  Bus1=3_290  Bus2=3_291  Length=10   units=m Linecode=Line_185
New Line.MVFeeder3.292  Bus1=3_291  Bus2=3_292  Length=10   units=m Linecode=Line_185
New Line.MVFeeder3.293  Bus1=3_292  Bus2=3_293  Length=10   units=m Linecode=Line_185
New Line.MVFeeder3.294  Bus1=3_293  Bus2=3_294  Length=10   units=m Linecode=Line_185
New Line.MVFeeder3.295  Bus1=3_294  Bus2=3_295  Length=10   units=m Linecode=Line_185
New Line.MVFeeder3.296  Bus1=3_295  Bus2=3_296  Length=10   units=m Linecode=Line_185
New Line.MVFeeder3.297  Bus1=3_296  Bus2=3_297  Length=10   units=m Linecode=Line_185
New Line.MVFeeder3.298  Bus1=3_297  Bus2=3_298  Length=10   units=m Linecode=Line_185
New Line.MVFeeder3.299  Bus1=3_298  Bus2=3_299  Length=10   units=m Linecode=Line_185
New Line.MVFeeder3.300  Bus1=3_299  Bus2=3_300  Length=10   units=m Linecode=Line_185
New Line.MVFeeder3.301  Bus1=3_300  Bus2=3_301  Length=10   units=m Linecode=Line_185
New Line.MVFeeder3.302  Bus1=3_301  Bus2=3_302  Length=10   units=m Linecode=Line_185
New Line.MVFeeder3.303  Bus1=3_302  Bus2=3_303  Length=10   units=m Linecode=Line_185
New Line.MVFeeder3.304  Bus1=3_303  Bus2=3_304  Length=10   units=m Linecode=Line_185
New Line.MVFeeder3.305  Bus1=3_304  Bus2=3_305  Length=10   units=m Linecode=Line_185
                        
                        
New Line.MVLateral3_start_2 Bus1=3_304  Bus2=3_306  Length=10   units=m Linecode=Line_95
New Line.MVLateral3.307 Bus1=3_306  Bus2=3_307  Length=10   units=m Linecode=Line_95
New Line.MVLateral3.308 Bus1=3_307  Bus2=3_308  Length=10   units=m Linecode=Line_95
New Line.MVLateral3.309 Bus1=3_308  Bus2=3_309  Length=10   units=m Linecode=Line_95
New Line.MVLateral3.310 Bus1=3_309  Bus2=3_310  Length=10   units=m Linecode=Line_95
New Line.MVLateral3.311 Bus1=3_310  Bus2=3_311  Length=10   units=m Linecode=Line_95
New Line.MVLateral3.312 Bus1=3_311  Bus2=3_312  Length=10   units=m Linecode=Line_95
New Line.MVLateral3.313 Bus1=3_312  Bus2=3_313  Length=10   units=m Linecode=Line_95
New Line.MVLateral3.314 Bus1=3_313  Bus2=3_314  Length=10   units=m Linecode=Line_95
New Line.MVLateral3.315 Bus1=3_314  Bus2=3_315  Length=10   units=m Linecode=Line_95
New Line.MVLateral3.316 Bus1=3_315  Bus2=3_316  Length=10   units=m Linecode=Line_95
New Line.MVLateral3.317 Bus1=3_316  Bus2=3_317  Length=10   units=m Linecode=Line_95
New Line.MVLateral3.318 Bus1=3_317  Bus2=3_318  Length=10   units=m Linecode=Line_95
New Line.MVLateral3.319 Bus1=3_318  Bus2=3_319  Length=10   units=m Linecode=Line_95
New Line.MVLateral3.320 Bus1=3_319  Bus2=3_320  Length=10   units=m Linecode=Line_95
New Line.MVLateral3.321 Bus1=3_320  Bus2=3_321  Length=10   units=m Linecode=Line_95
New Line.MVLateral3.322 Bus1=3_321  Bus2=3_322  Length=10   units=m Linecode=Line_95
New Line.MVLateral3.323 Bus1=3_322  Bus2=3_323  Length=10   units=m Linecode=Line_95
New Line.MVLateral3.324 Bus1=3_323  Bus2=3_324  Length=10   units=m Linecode=Line_95
New Line.MVLateral3.325 Bus1=3_324  Bus2=3_325  Length=10   units=m Linecode=Line_95
New Line.MVLateral3.326 Bus1=3_325  Bus2=3_326  Length=10   units=m Linecode=Line_95
New Line.MVLateral3.327 Bus1=3_326  Bus2=3_327  Length=10   units=m Linecode=Line_95
New Line.MVLateral3.328 Bus1=3_327  Bus2=3_328  Length=10   units=m Linecode=Line_95
New Line.MVLateral3.329 Bus1=3_328  Bus2=3_329  Length=10   units=m Linecode=Line_95
New Line.MVLateral3.330 Bus1=3_329  Bus2=3_330  Length=10   units=m Linecode=Line_95
New Line.MVLateral3.331 Bus1=3_330  Bus2=3_331  Length=10   units=m Linecode=Line_95
New Line.MVLateral3.332 Bus1=3_331  Bus2=3_332  Length=10   units=m Linecode=Line_95
New Line.MVLateral3.333 Bus1=3_332  Bus2=3_333  Length=10   units=m Linecode=Line_95
New Line.MVLateral3.334 Bus1=3_333  Bus2=3_334  Length=10   units=m Linecode=Line_95
New Line.MVLateral3.335 Bus1=3_334  Bus2=3_335  Length=10   units=m Linecode=Line_95
New Line.MVLateral3.336 Bus1=3_335  Bus2=3_336  Length=10   units=m Linecode=Line_95
New Line.MVLateral3.337 Bus1=3_336  Bus2=3_337  Length=10   units=m Linecode=Line_95
New Line.MVLateral3.338 Bus1=3_337  Bus2=3_338  Length=10   units=m Linecode=Line_95
New Line.MVLateral3.339 Bus1=3_338  Bus2=3_339  Length=10   units=m Linecode=Line_95
New Line.MVLateral3.340 Bus1=3_339  Bus2=3_340  Length=10   units=m Linecode=Line_95
New Line.MVLateral3.341 Bus1=3_340  Bus2=3_341  Length=10   units=m Linecode=Line_95
New Line.MVLateral3.342 Bus1=3_341  Bus2=3_342  Length=10   units=m Linecode=Line_95
New Line.MVLateral3.343 Bus1=3_342  Bus2=3_343  Length=10   units=m Linecode=Line_95
New Line.MVLateral3.344 Bus1=3_343  Bus2=3_344  Length=10   units=m Linecode=Line_95
New Line.MVLateral3.345 Bus1=3_344  Bus2=3_345  Length=10   units=m Linecode=Line_95
New Line.MVLateral3.346 Bus1=3_345  Bus2=3_346  Length=10   units=m Linecode=Line_95
New Line.MVLateral3.347 Bus1=3_346  Bus2=3_347  Length=10   units=m Linecode=Line_95