New Line.MVFeeder7.1    Bus1=Main_Busbar    Bus2=7_1    Length=10   units=m Linecode=Line_240   
New Line.MVFeeder7.2    Bus1=7_1    Bus2=7_2    Length=10   units=m Linecode=Line_240   
New Line.MVFeeder7.3    Bus1=7_2    Bus2=7_3    Length=10   units=m Linecode=Line_240   
New Line.MVFeeder7.4    Bus1=7_3    Bus2=7_4    Length=10   units=m Linecode=Line_240   
New Line.MVFeeder7.5    Bus1=7_4    Bus2=7_5    Length=10   units=m Linecode=Line_240   
New Line.MVFeeder7.6    Bus1=7_5    Bus2=7_6    Length=10   units=m Linecode=Line_240   
New Line.MVFeeder7.7    Bus1=7_6    Bus2=7_7    Length=10   units=m Linecode=Line_240   
New Line.MVFeeder7.8    Bus1=7_7    Bus2=7_8    Length=10   units=m Linecode=Line_240   
New Line.MVFeeder7.9    Bus1=7_8    Bus2=7_9    Length=10   units=m Linecode=Line_240   
New Line.MVFeeder7.10   Bus1=7_9    Bus2=7_10   Length=10   units=m Linecode=Line_240   
New Line.MVFeeder7.11   Bus1=7_10   Bus2=7_11   Length=10   units=m Linecode=Line_240   
New Line.MVFeeder7.12   Bus1=7_11   Bus2=7_12   Length=10   units=m Linecode=Line_240   
New Line.MVFeeder7.13   Bus1=7_12   Bus2=7_13   Length=10   units=m Linecode=Line_240   
New Line.MVFeeder7.14   Bus1=7_13   Bus2=7_14   Length=10   units=m Linecode=Line_240   
New Line.MVFeeder7.15   Bus1=7_14   Bus2=7_15   Length=10   units=m Linecode=Line_240   
New Line.MVFeeder7.16   Bus1=7_15   Bus2=7_16   Length=10   units=m Linecode=Line_240   
New Line.MVFeeder7.17   Bus1=7_16   Bus2=7_17   Length=10   units=m Linecode=Line_240   
New Line.MVFeeder7.18   Bus1=7_17   Bus2=7_18   Length=10   units=m Linecode=Line_240   
New Line.MVFeeder7.19   Bus1=7_18   Bus2=7_19   Length=10   units=m Linecode=Line_240   
New Line.MVFeeder7.20   Bus1=7_19   Bus2=7_20   Length=10   units=m Linecode=Line_240   
New Line.MVFeeder7.21   Bus1=7_20   Bus2=7_21   Length=10   units=m Linecode=Line_240   
                            
                            
New Line.MVLateral7_start_1 Bus1=7_20   Bus2=7_22   Length=10   units=m Linecode=Line_120    
New Line.MVLateral7.23  Bus1=7_22   Bus2=7_23   Length=10   units=m Linecode=Line_120    
New Line.MVLateral7.24  Bus1=7_23   Bus2=7_24   Length=10   units=m Linecode=Line_120    
New Line.MVLateral7.25  Bus1=7_24   Bus2=7_25   Length=10   units=m Linecode=Line_120    
New Line.MVLateral7.26  Bus1=7_25   Bus2=7_26   Length=10   units=m Linecode=Line_120    
New Line.MVLateral7.27  Bus1=7_26   Bus2=7_27   Length=10   units=m Linecode=Line_120    
New Line.MVLateral7.28  Bus1=7_27   Bus2=7_28   Length=10   units=m Linecode=Line_120    
New Line.MVLateral7.29  Bus1=7_28   Bus2=7_29   Length=10   units=m Linecode=Line_120    
New Line.MVLateral7.30  Bus1=7_29   Bus2=7_30   Length=10   units=m Linecode=Line_120    
New Line.MVLateral7.31  Bus1=7_30   Bus2=7_31   Length=10   units=m Linecode=Line_120    
New Line.MVLateral7.32  Bus1=7_31   Bus2=7_32   Length=10   units=m Linecode=Line_120    
New Line.MVLateral7.33  Bus1=7_32   Bus2=7_33   Length=10   units=m Linecode=Line_120    
New Line.MVLateral7.34  Bus1=7_33   Bus2=7_34   Length=10   units=m Linecode=Line_120    
New Line.MVLateral7.35  Bus1=7_34   Bus2=7_35   Length=10   units=m Linecode=Line_120    
New Line.MVLateral7.36  Bus1=7_35   Bus2=7_36   Length=10   units=m Linecode=Line_120    
New Line.MVLateral7.37  Bus1=7_36   Bus2=7_37   Length=10   units=m Linecode=Line_120    
New Line.MVLateral7.38  Bus1=7_37   Bus2=7_38   Length=10   units=m Linecode=Line_120    
New Line.MVLateral7.39  Bus1=7_38   Bus2=7_39   Length=10   units=m Linecode=Line_120    
New Line.MVLateral7.40  Bus1=7_39   Bus2=7_40   Length=10   units=m Linecode=Line_120    
New Line.MVLateral7.41  Bus1=7_40   Bus2=7_41   Length=10   units=m Linecode=Line_120    
New Line.MVLateral7.42  Bus1=7_41   Bus2=7_42   Length=10   units=m Linecode=Line_120    
New Line.MVLateral7.43  Bus1=7_42   Bus2=7_43   Length=10   units=m Linecode=Line_120    
New Line.MVLateral7.44  Bus1=7_43   Bus2=7_44   Length=10   units=m Linecode=Line_120    
New Line.MVLateral7.45  Bus1=7_44   Bus2=7_45   Length=10   units=m Linecode=Line_120    
New Line.MVLateral7.46  Bus1=7_45   Bus2=7_46   Length=10   units=m Linecode=Line_120    
New Line.MVLateral7.47  Bus1=7_46   Bus2=7_47   Length=10   units=m Linecode=Line_120    
New Line.MVLateral7.48  Bus1=7_47   Bus2=7_48   Length=10   units=m Linecode=Line_120    
New Line.MVLateral7.49  Bus1=7_48   Bus2=7_49   Length=10   units=m Linecode=Line_120    
New Line.MVLateral7.50  Bus1=7_49   Bus2=7_50   Length=10   units=m Linecode=Line_120    
New Line.MVLateral7.51  Bus1=7_50   Bus2=7_51   Length=10   units=m Linecode=Line_120    
New Line.MVLateral7.52  Bus1=7_51   Bus2=7_52   Length=10   units=m Linecode=Line_120    
New Line.MVLateral7.53  Bus1=7_52   Bus2=7_53   Length=10   units=m Linecode=Line_120    
New Line.MVLateral7.54  Bus1=7_53   Bus2=7_54   Length=10   units=m Linecode=Line_120    
New Line.MVLateral7.55  Bus1=7_54   Bus2=7_55   Length=10   units=m Linecode=Line_120    
New Line.MVLateral7.56  Bus1=7_55   Bus2=7_56   Length=10   units=m Linecode=Line_120    
New Line.MVLateral7.57  Bus1=7_56   Bus2=7_57   Length=10   units=m Linecode=Line_120    
New Line.MVLateral7.58  Bus1=7_57   Bus2=7_58   Length=10   units=m Linecode=Line_120    
New Line.MVLateral7.59  Bus1=7_58   Bus2=7_59   Length=10   units=m Linecode=Line_120    
New Line.MVLateral7.60  Bus1=7_59   Bus2=7_60   Length=10   units=m Linecode=Line_120    
New Line.MVLateral7.61  Bus1=7_60   Bus2=7_61   Length=10   units=m Linecode=Line_120    
New Line.MVLateral7.62  Bus1=7_61   Bus2=7_62   Length=10   units=m Linecode=Line_120    
New Line.MVLateral7.63  Bus1=7_62   Bus2=7_63   Length=10   units=m Linecode=Line_120    
New Line.MVLateral7.64  Bus1=7_63   Bus2=7_64   Length=10   units=m Linecode=Line_120    
New Line.MVLateral7.65  Bus1=7_64   Bus2=7_65   Length=10   units=m Linecode=Line_120    
New Line.MVLateral7.66  Bus1=7_65   Bus2=7_66   Length=10   units=m Linecode=Line_120    
New Line.MVLateral7.67  Bus1=7_66   Bus2=7_67   Length=10   units=m Linecode=Line_120    
New Line.MVLateral7.68  Bus1=7_67   Bus2=7_68   Length=10   units=m Linecode=Line_120    
New Line.MVLateral7.69  Bus1=7_68   Bus2=7_69   Length=10   units=m Linecode=Line_120    
New Line.MVLateral7.70  Bus1=7_69   Bus2=7_70   Length=10   units=m Linecode=Line_120    
New Line.MVLateral7.71  Bus1=7_70   Bus2=7_71   Length=10   units=m Linecode=Line_120    
New Line.MVLateral7.72  Bus1=7_71   Bus2=7_72   Length=10   units=m Linecode=Line_120    
New Line.MVLateral7.73  Bus1=7_72   Bus2=7_73   Length=10   units=m Linecode=Line_120    
New Line.MVLateral7.74  Bus1=7_73   Bus2=7_74   Length=10   units=m Linecode=Line_120    
New Line.MVLateral7.75  Bus1=7_74   Bus2=7_75   Length=10   units=m Linecode=Line_120    
                            
New Line.MVLateral7.86  Bus1=7_85   Bus2=7_86   Length=10   units=m Linecode=Line_120    
New Line.MVLateral7.87  Bus1=7_86   Bus2=7_87   Length=10   units=m Linecode=Line_120    
New Line.MVLateral7.88  Bus1=7_87   Bus2=7_88   Length=10   units=m Linecode=Line_120    
New Line.MVLateral7.89  Bus1=7_88   Bus2=7_89   Length=10   units=m Linecode=Line_120    
New Line.MVLateral7.90  Bus1=7_89   Bus2=7_90   Length=10   units=m Linecode=Line_120    
New Line.MVLateral7.91  Bus1=7_90   Bus2=7_91   Length=10   units=m Linecode=Line_120    
New Line.MVLateral7.92  Bus1=7_91   Bus2=7_92   Length=10   units=m Linecode=Line_120    
New Line.MVLateral7.93  Bus1=7_92   Bus2=7_93   Length=10   units=m Linecode=Line_120    
New Line.MVLateral7.94  Bus1=7_93   Bus2=7_94   Length=10   units=m Linecode=Line_120    
New Line.MVLateral7.95  Bus1=7_94   Bus2=7_95   Length=10   units=m Linecode=Line_120    
New Line.MVLateral7.96  Bus1=7_95   Bus2=7_96   Length=10   units=m Linecode=Line_120    
New Line.MVLateral7.97  Bus1=7_96   Bus2=7_97   Length=10   units=m Linecode=Line_120    
New Line.MVLateral7.98  Bus1=7_97   Bus2=7_98   Length=10   units=m Linecode=Line_120    
New Line.MVLateral7.99  Bus1=7_98   Bus2=7_99   Length=10   units=m Linecode=Line_120    
New Line.MVLateral7.100 Bus1=7_99   Bus2=7_100  Length=10   units=m Linecode=Line_120    
New Line.MVLateral7.101 Bus1=7_100  Bus2=7_101  Length=10   units=m Linecode=Line_120    
New Line.MVLateral7.102 Bus1=7_101  Bus2=7_102  Length=10   units=m Linecode=Line_120    
New Line.MVLateral7.103 Bus1=7_102  Bus2=7_103  Length=10   units=m Linecode=Line_120    
New Line.MVLateral7.104 Bus1=7_103  Bus2=7_104  Length=10   units=m Linecode=Line_120    
New Line.MVLateral7.105 Bus1=7_104  Bus2=7_105  Length=10   units=m Linecode=Line_120    
New Line.MVLateral7.106 Bus1=7_105  Bus2=7_106  Length=10   units=m Linecode=Line_120    
New Line.MVLateral7.107 Bus1=7_106  Bus2=7_107  Length=10   units=m Linecode=Line_120    
New Line.MVLateral7.108 Bus1=7_107  Bus2=7_108  Length=10   units=m Linecode=Line_120    
New Line.MVLateral7.109 Bus1=7_108  Bus2=7_109  Length=10   units=m Linecode=Line_120    
New Line.MVLateral7.110 Bus1=7_109  Bus2=7_110  Length=10   units=m Linecode=Line_120    
New Line.MVLateral7.111 Bus1=7_110  Bus2=7_111  Length=10   units=m Linecode=Line_120    
New Line.MVLateral7.112 Bus1=7_111  Bus2=7_112  Length=10   units=m Linecode=Line_120    
New Line.MVLateral7.113 Bus1=7_112  Bus2=7_113  Length=10   units=m Linecode=Line_120    
New Line.MVLateral7.114 Bus1=7_113  Bus2=7_114  Length=10   units=m Linecode=Line_120    
New Line.MVLateral7.115 Bus1=7_114  Bus2=7_115  Length=10   units=m Linecode=Line_120    
New Line.MVLateral7.116 Bus1=7_115  Bus2=7_116  Length=10   units=m Linecode=Line_120    
New Line.MVLateral7.117 Bus1=7_116  Bus2=7_117  Length=10   units=m Linecode=Line_120    
New Line.MVLateral7.118 Bus1=7_117  Bus2=7_118  Length=10   units=m Linecode=Line_120    
New Line.MVLateral7.119 Bus1=7_118  Bus2=7_119  Length=10   units=m Linecode=Line_120    
New Line.MVLateral7.120 Bus1=7_119  Bus2=7_120  Length=10   units=m Linecode=Line_120    
New Line.MVLateral7.121 Bus1=7_120  Bus2=7_121  Length=10   units=m Linecode=Line_120    
New Line.MVLateral7.122 Bus1=7_121  Bus2=7_122  Length=10   units=m Linecode=Line_120    
                            
New Line.MVLateral7.123 Bus1=7_122  Bus2=7_123  Length=10   units=m Linecode=Line_120    
New Line.MVLateral7.124 Bus1=7_123  Bus2=7_124  Length=10   units=m Linecode=Line_120    
New Line.MVLateral7.125 Bus1=7_124  Bus2=7_125  Length=10   units=m Linecode=Line_120    
New Line.MVLateral7.126 Bus1=7_125  Bus2=7_126  Length=10   units=m Linecode=Line_120    
New Line.MVLateral7.127 Bus1=7_126  Bus2=7_127  Length=10   units=m Linecode=Line_120    
New Line.MVLateral7.128 Bus1=7_127  Bus2=7_128  Length=10   units=m Linecode=Line_120    
New Line.MVLateral7.129 Bus1=7_128  Bus2=7_129  Length=10   units=m Linecode=Line_120    
New Line.MVLateral7.130 Bus1=7_129  Bus2=7_130  Length=10   units=m Linecode=Line_120    
                            
New Line.MVLateral7.131 Bus1=7_130  Bus2=7_131  Length=10   units=m Linecode=Line_120    
New Line.MVLateral7.132 Bus1=7_131  Bus2=7_132  Length=10   units=m Linecode=Line_120    
New Line.MVLateral7.133 Bus1=7_132  Bus2=7_133  Length=10   units=m Linecode=Line_120    
New Line.MVLateral7.134 Bus1=7_133  Bus2=7_134  Length=10   units=m Linecode=Line_120    
New Line.MVLateral7.135 Bus1=7_134  Bus2=7_135  Length=10   units=m Linecode=Line_120    
New Line.MVLateral7.136 Bus1=7_135  Bus2=7_136  Length=10   units=m Linecode=Line_120    
New Line.MVLateral7.137 Bus1=7_136  Bus2=7_137  Length=10   units=m Linecode=Line_120    
New Line.MVLateral7.138 Bus1=7_137  Bus2=7_138  Length=10   units=m Linecode=Line_120    
New Line.MVLateral7.139 Bus1=7_138  Bus2=7_139  Length=10   units=m Linecode=Line_120    
New Line.MVLateral7.140 Bus1=7_139  Bus2=7_140  Length=10   units=m Linecode=Line_120    
New Line.MVLateral7.141 Bus1=7_140  Bus2=7_141  Length=10   units=m Linecode=Line_120    
New Line.MVLateral7_end_1   Bus1=7_141  Bus2=7_142  Length=10   units=m Linecode=Line_120    
                            
New Line.MVFeeder7.143  Bus1=7_21   Bus2=7_143  Length=10   units=m Linecode=Line_240   
New Line.MVFeeder7.144  Bus1=7_143  Bus2=7_144  Length=10   units=m Linecode=Line_240   
New Line.MVFeeder7.145  Bus1=7_144  Bus2=7_145  Length=10   units=m Linecode=Line_240   
New Line.MVFeeder7.146  Bus1=7_145  Bus2=7_146  Length=10   units=m Linecode=Line_240   
New Line.MVFeeder7.147  Bus1=7_146  Bus2=7_147  Length=10   units=m Linecode=Line_240   
New Line.MVFeeder7.148  Bus1=7_147  Bus2=7_148  Length=10   units=m Linecode=Line_240   
New Line.MVFeeder7.149  Bus1=7_148  Bus2=7_149  Length=10   units=m Linecode=Line_240   
New Line.MVFeeder7.150  Bus1=7_149  Bus2=7_150  Length=10   units=m Linecode=Line_240   
New Line.MVFeeder7.151  Bus1=7_150  Bus2=7_151  Length=10   units=m Linecode=Line_240   
New Line.MVFeeder7.152  Bus1=7_151  Bus2=7_152  Length=10   units=m Linecode=Line_240   
New Line.MVFeeder7.153  Bus1=7_152  Bus2=7_153  Length=10   units=m Linecode=Line_240   
New Line.MVFeeder7.154  Bus1=7_153  Bus2=7_154  Length=10   units=m Linecode=Line_240   
New Line.MVFeeder7.155  Bus1=7_154  Bus2=7_155  Length=10   units=m Linecode=Line_240   
New Line.MVFeeder7.156  Bus1=7_155  Bus2=7_156  Length=10   units=m Linecode=Line_240   
New Line.MVFeeder7.157  Bus1=7_156  Bus2=7_157  Length=10   units=m Linecode=Line_240   
New Line.MVFeeder7.158  Bus1=7_157  Bus2=7_158  Length=10   units=m Linecode=Line_240   
New Line.MVFeeder7.159  Bus1=7_158  Bus2=7_159  Length=10   units=m Linecode=Line_240   
New Line.MVFeeder7.160  Bus1=7_159  Bus2=7_160  Length=10   units=m Linecode=Line_240   
New Line.MVFeeder7.161  Bus1=7_160  Bus2=7_161  Length=10   units=m Linecode=Line_240   
New Line.MVFeeder7.162  Bus1=7_161  Bus2=7_162  Length=10   units=m Linecode=Line_240   
New Line.MVFeeder7.163  Bus1=7_162  Bus2=7_163  Length=10   units=m Linecode=Line_240   
New Line.MVFeeder7.164  Bus1=7_163  Bus2=7_164  Length=10   units=m Linecode=Line_240   
New Line.MVFeeder7.165  Bus1=7_164  Bus2=7_165  Length=10   units=m Linecode=Line_240   
New Line.MVFeeder7.166  Bus1=7_165  Bus2=7_166  Length=10   units=m Linecode=Line_240   
New Line.MVFeeder7.167  Bus1=7_166  Bus2=7_167  Length=10   units=m Linecode=Line_240   
New Line.MVFeeder7.168  Bus1=7_167  Bus2=7_168  Length=10   units=m Linecode=Line_240   
New Line.MVFeeder7.169  Bus1=7_168  Bus2=7_169  Length=10   units=m Linecode=Line_240   
New Line.MVFeeder7.170  Bus1=7_169  Bus2=7_170  Length=10   units=m Linecode=Line_240   
New Line.MVFeeder7.171  Bus1=7_170  Bus2=7_171  Length=10   units=m Linecode=Line_240   
New Line.MVFeeder7.172  Bus1=7_171  Bus2=7_172  Length=10   units=m Linecode=Line_240   
New Line.MVFeeder7.173  Bus1=7_172  Bus2=7_173  Length=10   units=m Linecode=Line_240   
New Line.MVFeeder7.174  Bus1=7_173  Bus2=7_174  Length=10   units=m Linecode=Line_240   
New Line.MVFeeder7.175  Bus1=7_174  Bus2=7_175  Length=10   units=m Linecode=Line_240   
New Line.MVFeeder7.176  Bus1=7_175  Bus2=7_176  Length=10   units=m Linecode=Line_240   
New Line.MVFeeder7.177  Bus1=7_176  Bus2=7_177  Length=10   units=m Linecode=Line_240   
New Line.MVFeeder7.178  Bus1=7_177  Bus2=7_178  Length=10   units=m Linecode=Line_240   
New Line.MVFeeder7.179  Bus1=7_178  Bus2=7_179  Length=10   units=m Linecode=Line_240   
New Line.MVFeeder7.180  Bus1=7_179  Bus2=7_180  Length=10   units=m Linecode=Line_240   
New Line.MVFeeder7.181  Bus1=7_180  Bus2=7_181  Length=10   units=m Linecode=Line_240   
New Line.MVFeeder7.182  Bus1=7_181  Bus2=7_182  Length=10   units=m Linecode=Line_240   
New Line.MVFeeder7.183  Bus1=7_182  Bus2=7_183  Length=10   units=m Linecode=Line_240   
                            
New Line.MVLateral7_start_2 Bus1=7_182  Bus2=7_184  Length=10   units=m Linecode=Line_120    
New Line.MVLateral7.185 Bus1=7_184  Bus2=7_185  Length=10   units=m Linecode=Line_120    
New Line.MVLateral7.186 Bus1=7_185  Bus2=7_186  Length=10   units=m Linecode=Line_120    
New Line.MVLateral7.187 Bus1=7_186  Bus2=7_187  Length=10   units=m Linecode=Line_120    
New Line.MVLateral7.188 Bus1=7_187  Bus2=7_188  Length=10   units=m Linecode=Line_120    
New Line.MVLateral7.189 Bus1=7_188  Bus2=7_189  Length=10   units=m Linecode=Line_120    
New Line.MVLateral7.190 Bus1=7_189  Bus2=7_190  Length=10   units=m Linecode=Line_120    
New Line.MVLateral7.191 Bus1=7_190  Bus2=7_191  Length=10   units=m Linecode=Line_120    
New Line.MVLateral7.192 Bus1=7_191  Bus2=7_192  Length=10   units=m Linecode=Line_120    
New Line.MVLateral7.193 Bus1=7_192  Bus2=7_193  Length=10   units=m Linecode=Line_120    
New Line.MVLateral7.194 Bus1=7_193  Bus2=7_194  Length=10   units=m Linecode=Line_120    
New Line.MVLateral7.195 Bus1=7_194  Bus2=7_195  Length=10   units=m Linecode=Line_120    
New Line.MVLateral7.196 Bus1=7_195  Bus2=7_196  Length=10   units=m Linecode=Line_120    
New Line.MVLateral7.197 Bus1=7_196  Bus2=7_197  Length=10   units=m Linecode=Line_120    
New Line.MVLateral7.198 Bus1=7_197  Bus2=7_198  Length=10   units=m Linecode=Line_120    
New Line.MVLateral7.199 Bus1=7_198  Bus2=7_199  Length=10   units=m Linecode=Line_120    
New Line.MVLateral7.200 Bus1=7_199  Bus2=7_200  Length=10   units=m Linecode=Line_120    
New Line.MVLateral7.201 Bus1=7_200  Bus2=7_201  Length=10   units=m Linecode=Line_120    
New Line.MVLateral7.202 Bus1=7_201  Bus2=7_202  Length=10   units=m Linecode=Line_120    
New Line.MVLateral7.203 Bus1=7_202  Bus2=7_203  Length=10   units=m Linecode=Line_120    
New Line.MVLateral7.204 Bus1=7_203  Bus2=7_204  Length=10   units=m Linecode=Line_120    
New Line.MVLateral7.205 Bus1=7_204  Bus2=7_205  Length=10   units=m Linecode=Line_120    
New Line.MVLateral7.206 Bus1=7_205  Bus2=7_206  Length=10   units=m Linecode=Line_120    
New Line.MVLateral7.207 Bus1=7_206  Bus2=7_207  Length=10   units=m Linecode=Line_120    
New Line.MVLateral7.208 Bus1=7_207  Bus2=7_208  Length=10   units=m Linecode=Line_120    
New Line.MVLateral7.209 Bus1=7_208  Bus2=7_209  Length=10   units=m Linecode=Line_120    
New Line.MVLateral7.210 Bus1=7_209  Bus2=7_210  Length=10   units=m Linecode=Line_120    
New Line.MVLateral7.211 Bus1=7_210  Bus2=7_211  Length=10   units=m Linecode=Line_120    
New Line.MVLateral7.212 Bus1=7_211  Bus2=7_212  Length=10   units=m Linecode=Line_120    
New Line.MVLateral7.213 Bus1=7_212  Bus2=7_213  Length=10   units=m Linecode=Line_120    
New Line.MVLateral7.214 Bus1=7_213  Bus2=7_214  Length=10   units=m Linecode=Line_120    
New Line.MVLateral7.215 Bus1=7_214  Bus2=7_215  Length=10   units=m Linecode=Line_120    
New Line.MVLateral7.216 Bus1=7_215  Bus2=7_216  Length=10   units=m Linecode=Line_120    
New Line.MVLateral7.217 Bus1=7_216  Bus2=7_217  Length=10   units=m Linecode=Line_120    
New Line.MVLateral7.218 Bus1=7_217  Bus2=7_218  Length=10   units=m Linecode=Line_120    
New Line.MVLateral7.219 Bus1=7_218  Bus2=7_219  Length=10   units=m Linecode=Line_120    
New Line.MVLateral7.220 Bus1=7_219  Bus2=7_220  Length=10   units=m Linecode=Line_120    
New Line.MVLateral7.221 Bus1=7_220  Bus2=7_221  Length=10   units=m Linecode=Line_120    
New Line.MVLateral7.222 Bus1=7_221  Bus2=7_222  Length=10   units=m Linecode=Line_120    
New Line.MVLateral7.223 Bus1=7_222  Bus2=7_223  Length=10   units=m Linecode=Line_120    
New Line.MVLateral7.224 Bus1=7_223  Bus2=7_224  Length=10   units=m Linecode=Line_120    
New Line.MVLateral7.225 Bus1=7_224  Bus2=7_225  Length=10   units=m Linecode=Line_120    
New Line.MVLateral7.226 Bus1=7_225  Bus2=7_226  Length=10   units=m Linecode=Line_120    
New Line.MVLateral7.227 Bus1=7_226  Bus2=7_227  Length=10   units=m Linecode=Line_120    
New Line.MVLateral7.228 Bus1=7_227  Bus2=7_228  Length=10   units=m Linecode=Line_120    
New Line.MVLateral7.229 Bus1=7_228  Bus2=7_229  Length=10   units=m Linecode=Line_120    
New Line.MVLateral7.230 Bus1=7_229  Bus2=7_230  Length=10   units=m Linecode=Line_120    
New Line.MVLateral7.231 Bus1=7_230  Bus2=7_231  Length=10   units=m Linecode=Line_120    
New Line.MVLateral7.232 Bus1=7_231  Bus2=7_232  Length=10   units=m Linecode=Line_120    
New Line.MVLateral7.233 Bus1=7_232  Bus2=7_233  Length=10   units=m Linecode=Line_120    
New Line.MVLateral7.234 Bus1=7_233  Bus2=7_234  Length=10   units=m Linecode=Line_120    
New Line.MVLateral7.235 Bus1=7_234  Bus2=7_235  Length=10   units=m Linecode=Line_120    
New Line.MVLateral7.236 Bus1=7_235  Bus2=7_236  Length=10   units=m Linecode=Line_120    
New Line.MVLateral7.237 Bus1=7_236  Bus2=7_237  Length=10   units=m Linecode=Line_120    
New Line.MVLateral7.238 Bus1=7_237  Bus2=7_238  Length=10   units=m Linecode=Line_120    
New Line.MVLateral7.239 Bus1=7_238  Bus2=7_239  Length=10   units=m Linecode=Line_120    
New Line.MVLateral7.240 Bus1=7_239  Bus2=7_240  Length=10   units=m Linecode=Line_120    
New Line.MVLateral7.241 Bus1=7_240  Bus2=7_241  Length=10   units=m Linecode=Line_120    
New Line.MVLateral7.242 Bus1=7_241  Bus2=7_242  Length=10   units=m Linecode=Line_120    
New Line.MVLateral7.243 Bus1=7_242  Bus2=7_243  Length=10   units=m Linecode=Line_120    
New Line.MVLateral7.244 Bus1=7_243  Bus2=7_244  Length=10   units=m Linecode=Line_120    
New Line.MVLateral7.245 Bus1=7_244  Bus2=7_245  Length=10   units=m Linecode=Line_120    
New Line.MVLateral7.246 Bus1=7_245  Bus2=7_246  Length=10   units=m Linecode=Line_120    
New Line.MVLateral7.247 Bus1=7_246  Bus2=7_247  Length=10   units=m Linecode=Line_120    
New Line.MVLateral7.248 Bus1=7_247  Bus2=7_248  Length=10   units=m Linecode=Line_120    
New Line.MVLateral7.249 Bus1=7_248  Bus2=7_249  Length=10   units=m Linecode=Line_120    
New Line.MVLateral7.250 Bus1=7_249  Bus2=7_250  Length=10   units=m Linecode=Line_120    
New Line.MVLateral7.251 Bus1=7_250  Bus2=7_251  Length=10   units=m Linecode=Line_120    
New Line.MVLateral7.252 Bus1=7_251  Bus2=7_252  Length=10   units=m Linecode=Line_120    
New Line.MVLateral7.253 Bus1=7_252  Bus2=7_253  Length=10   units=m Linecode=Line_120    
New Line.MVLateral7.254 Bus1=7_253  Bus2=7_254  Length=10   units=m Linecode=Line_120    
New Line.MVLateral7.255 Bus1=7_254  Bus2=7_255  Length=10   units=m Linecode=Line_120    
New Line.MVLateral7.256 Bus1=7_255  Bus2=7_256  Length=10   units=m Linecode=Line_120    
New Line.MVLateral7.257 Bus1=7_256  Bus2=7_257  Length=10   units=m Linecode=Line_120    
New Line.MVLateral7.258 Bus1=7_257  Bus2=7_258  Length=10   units=m Linecode=Line_120    
New Line.MVLateral7.259 Bus1=7_258  Bus2=7_259  Length=10   units=m Linecode=Line_120    
New Line.MVLateral7.260 Bus1=7_259  Bus2=7_260  Length=10   units=m Linecode=Line_120    
New Line.MVLateral7.261 Bus1=7_260  Bus2=7_261  Length=10   units=m Linecode=Line_120    
New Line.MVLateral7.262 Bus1=7_261  Bus2=7_262  Length=10   units=m Linecode=Line_120    
New Line.MVLateral7.263 Bus1=7_262  Bus2=7_263  Length=10   units=m Linecode=Line_120    
New Line.MVLateral7.264 Bus1=7_263  Bus2=7_264  Length=10   units=m Linecode=Line_120    
New Line.MVLateral7.265 Bus1=7_264  Bus2=7_265  Length=10   units=m Linecode=Line_120    
New Line.MVLateral7.266 Bus1=7_265  Bus2=7_266  Length=10   units=m Linecode=Line_120    
New Line.MVLateral7.267 Bus1=7_266  Bus2=7_267  Length=10   units=m Linecode=Line_120    
New Line.MVLateral7.268 Bus1=7_267  Bus2=7_268  Length=10   units=m Linecode=Line_120    
New Line.MVLateral7.269 Bus1=7_268  Bus2=7_269  Length=10   units=m Linecode=Line_120    
New Line.MVLateral7.270 Bus1=7_269  Bus2=7_270  Length=10   units=m Linecode=Line_120    
New Line.MVLateral7.271 Bus1=7_270  Bus2=7_271  Length=10   units=m Linecode=Line_120    
New Line.MVLateral7.272 Bus1=7_271  Bus2=7_272  Length=10   units=m Linecode=Line_120    
New Line.MVLateral7.273 Bus1=7_272  Bus2=7_273  Length=10   units=m Linecode=Line_120    
New Line.MVLateral7.274 Bus1=7_273  Bus2=7_274  Length=10   units=m Linecode=Line_120    
New Line.MVLateral7.275 Bus1=7_274  Bus2=7_275  Length=10   units=m Linecode=Line_120    
New Line.MVLateral7.276 Bus1=7_275  Bus2=7_276  Length=10   units=m Linecode=Line_120    
New Line.MVLateral7.277 Bus1=7_276  Bus2=7_277  Length=10   units=m Linecode=Line_120    
New Line.MVLateral7.278 Bus1=7_277  Bus2=7_278  Length=10   units=m Linecode=Line_120    
New Line.MVLateral7.279 Bus1=7_278  Bus2=7_279  Length=10   units=m Linecode=Line_120    
New Line.MVLateral7.280 Bus1=7_279  Bus2=7_280  Length=10   units=m Linecode=Line_120    
New Line.MVLateral7.281 Bus1=7_280  Bus2=7_281  Length=10   units=m Linecode=Line_120    
New Line.MVLateral7.282 Bus1=7_281  Bus2=7_282  Length=10   units=m Linecode=Line_120    
New Line.MVLateral7.283 Bus1=7_282  Bus2=7_283  Length=10   units=m Linecode=Line_120    
New Line.MVLateral7.284 Bus1=7_283  Bus2=7_284  Length=10   units=m Linecode=Line_120    
New Line.MVLateral7.285 Bus1=7_284  Bus2=7_285  Length=10   units=m Linecode=Line_120    
New Line.MVLateral7.286 Bus1=7_285  Bus2=7_286  Length=10   units=m Linecode=Line_120    
New Line.MVLateral7.287 Bus1=7_286  Bus2=7_287  Length=10   units=m Linecode=Line_120    
New Line.MVLateral7.288 Bus1=7_287  Bus2=7_288  Length=10   units=m Linecode=Line_120    
New Line.MVLateral7.289 Bus1=7_288  Bus2=7_289  Length=10   units=m Linecode=Line_120    
New Line.MVLateral7.290 Bus1=7_289  Bus2=7_290  Length=10   units=m Linecode=Line_120    
New Line.MVLateral7.291 Bus1=7_290  Bus2=7_291  Length=10   units=m Linecode=Line_120    
New Line.MVLateral7.292 Bus1=7_291  Bus2=7_292  Length=10   units=m Linecode=Line_120    
New Line.MVLateral7.293 Bus1=7_292  Bus2=7_293  Length=10   units=m Linecode=Line_120    
New Line.MVLateral7.294 Bus1=7_293  Bus2=7_294  Length=10   units=m Linecode=Line_120    
New Line.MVLateral7.295 Bus1=7_294  Bus2=7_295  Length=10   units=m Linecode=Line_120    
New Line.MVLateral7.296 Bus1=7_295  Bus2=7_296  Length=10   units=m Linecode=Line_120    
New Line.MVLateral7.297 Bus1=7_296  Bus2=7_297  Length=10   units=m Linecode=Line_120    
New Line.MVLateral7.298 Bus1=7_297  Bus2=7_298  Length=10   units=m Linecode=Line_120    
New Line.MVLateral7.299 Bus1=7_298  Bus2=7_299  Length=10   units=m Linecode=Line_120    
New Line.MVLateral7.300 Bus1=7_299  Bus2=7_300  Length=10   units=m Linecode=Line_120    
New Line.MVLateral7.301 Bus1=7_300  Bus2=7_301  Length=10   units=m Linecode=Line_120    
New Line.MVLateral7.302 Bus1=7_301  Bus2=7_302  Length=10   units=m Linecode=Line_120    
New Line.MVLateral7.303 Bus1=7_302  Bus2=7_303  Length=10   units=m Linecode=Line_120    
New Line.MVLateral7_end_2   Bus1=7_303  Bus2=7_304  Length=10   units=m Linecode=Line_120    
                            
New Line.MVFeeder7.305  Bus1=7_183  Bus2=7_305  Length=10   units=m Linecode=Line_240   
New Line.MVFeeder7.306  Bus1=7_305  Bus2=7_306  Length=10   units=m Linecode=Line_240   
New Line.MVFeeder7.307  Bus1=7_306  Bus2=7_307  Length=10   units=m Linecode=Line_240   
New Line.MVFeeder7.308  Bus1=7_307  Bus2=7_308  Length=10   units=m Linecode=Line_240   
New Line.MVFeeder7.309  Bus1=7_308  Bus2=7_309  Length=10   units=m Linecode=Line_240   
New Line.MVFeeder7.310  Bus1=7_309  Bus2=7_310  Length=10   units=m Linecode=Line_240   
New Line.MVFeeder7.311  Bus1=7_310  Bus2=7_311  Length=10   units=m Linecode=Line_240   
New Line.MVFeeder7.312  Bus1=7_311  Bus2=7_312  Length=10   units=m Linecode=Line_240   
New Line.MVFeeder7.313  Bus1=7_312  Bus2=7_313  Length=10   units=m Linecode=Line_240   
New Line.MVFeeder7.314  Bus1=7_313  Bus2=7_314  Length=10   units=m Linecode=Line_240   
New Line.MVFeeder7.315  Bus1=7_314  Bus2=7_315  Length=10   units=m Linecode=Line_240   
New Line.MVFeeder7.316  Bus1=7_315  Bus2=7_316  Length=10   units=m Linecode=Line_240   
New Line.MVFeeder7.317  Bus1=7_316  Bus2=7_317  Length=10   units=m Linecode=Line_240   
New Line.MVFeeder7.318  Bus1=7_317  Bus2=7_318  Length=10   units=m Linecode=Line_240   
New Line.MVFeeder7.319  Bus1=7_318  Bus2=7_319  Length=10   units=m Linecode=Line_240   
New Line.MVFeeder7.320  Bus1=7_319  Bus2=7_320  Length=10   units=m Linecode=Line_240   
New Line.MVFeeder7.321  Bus1=7_320  Bus2=7_321  Length=10   units=m Linecode=Line_240   
New Line.MVFeeder7.322  Bus1=7_321  Bus2=7_322  Length=10   units=m Linecode=Line_240   
New Line.MVFeeder7.323  Bus1=7_322  Bus2=7_323  Length=10   units=m Linecode=Line_240   
New Line.MVFeeder7.324  Bus1=7_323  Bus2=7_324  Length=10   units=m Linecode=Line_240   
New Line.MVFeeder7.325  Bus1=7_324  Bus2=7_325  Length=10   units=m Linecode=Line_240   
New Line.MVFeeder7.326  Bus1=7_325  Bus2=7_326  Length=10   units=m Linecode=Line_240   
New Line.MVFeeder7.327  Bus1=7_326  Bus2=7_327  Length=10   units=m Linecode=Line_240   
New Line.MVFeeder7.328  Bus1=7_327  Bus2=7_328  Length=10   units=m Linecode=Line_240   
New Line.MVFeeder7.329  Bus1=7_328  Bus2=7_329  Length=10   units=m Linecode=Line_240   
New Line.MVFeeder7.330  Bus1=7_329  Bus2=7_330  Length=10   units=m Linecode=Line_240   
New Line.MVFeeder7.331  Bus1=7_330  Bus2=7_331  Length=10   units=m Linecode=Line_240   
New Line.MVFeeder7.332  Bus1=7_331  Bus2=7_332  Length=10   units=m Linecode=Line_240   
New Line.MVFeeder7.333  Bus1=7_332  Bus2=7_333  Length=10   units=m Linecode=Line_240   
New Line.MVFeeder7.334  Bus1=7_333  Bus2=7_334  Length=10   units=m Linecode=Line_240   
New Line.MVFeeder7.335  Bus1=7_334  Bus2=7_335  Length=10   units=m Linecode=Line_240   
New Line.MVFeeder7.336  Bus1=7_335  Bus2=7_336  Length=10   units=m Linecode=Line_240   
New Line.MVFeeder7.337  Bus1=7_336  Bus2=7_337  Length=10   units=m Linecode=Line_240   
New Line.MVFeeder7.338  Bus1=7_337  Bus2=7_338  Length=10   units=m Linecode=Line_240   
New Line.MVFeeder7.339  Bus1=7_338  Bus2=7_339  Length=10   units=m Linecode=Line_240   
New Line.MVFeeder7.340  Bus1=7_339  Bus2=7_340  Length=10   units=m Linecode=Line_240   
New Line.MVFeeder7.341  Bus1=7_340  Bus2=7_341  Length=10   units=m Linecode=Line_240   