New Line.MVFeeder10.1    Bus1=Main_Busbar    Bus2=10_1    Length=10   units=m Linecode=Line_240   
New Line.MVFeeder10.2    Bus1=10_1    Bus2=10_2    Length=10   units=m Linecode=Line_240   
New Line.MVFeeder10.3    Bus1=10_2    Bus2=10_3    Length=10   units=m Linecode=Line_240   
New Line.MVFeeder10.4    Bus1=10_3    Bus2=10_4    Length=10   units=m Linecode=Line_240   
New Line.MVFeeder10.5    Bus1=10_4    Bus2=10_5    Length=10   units=m Linecode=Line_240   
New Line.MVFeeder10.6    Bus1=10_5    Bus2=10_6    Length=10   units=m Linecode=Line_240   
New Line.MVFeeder10.7    Bus1=10_6    Bus2=10_7    Length=10   units=m Linecode=Line_240   
New Line.MVFeeder10.8    Bus1=10_7    Bus2=10_8    Length=10   units=m Linecode=Line_240   
New Line.MVFeeder10.9    Bus1=10_8    Bus2=10_9    Length=10   units=m Linecode=Line_240   
New Line.MVFeeder10.10   Bus1=10_9    Bus2=10_10   Length=10   units=m Linecode=Line_240   
New Line.MVFeeder10.11   Bus1=10_10   Bus2=10_11   Length=10   units=m Linecode=Line_240   
New Line.MVFeeder10.12   Bus1=10_11   Bus2=10_12   Length=10   units=m Linecode=Line_240   
New Line.MVFeeder10.13   Bus1=10_12   Bus2=10_13   Length=10   units=m Linecode=Line_240   
New Line.MVFeeder10.14   Bus1=10_13   Bus2=10_14   Length=10   units=m Linecode=Line_240   
New Line.MVFeeder10.15   Bus1=10_14   Bus2=10_15   Length=10   units=m Linecode=Line_240   
New Line.MVFeeder10.16   Bus1=10_15   Bus2=10_16   Length=10   units=m Linecode=Line_240   
New Line.MVFeeder10.17   Bus1=10_16   Bus2=10_17   Length=10   units=m Linecode=Line_240   
New Line.MVFeeder10.18   Bus1=10_17   Bus2=10_18   Length=10   units=m Linecode=Line_240   
New Line.MVFeeder10.19   Bus1=10_18   Bus2=10_19   Length=10   units=m Linecode=Line_240   
New Line.MVFeeder10.20   Bus1=10_19   Bus2=10_20   Length=10   units=m Linecode=Line_240   
New Line.MVFeeder10.21   Bus1=10_20   Bus2=10_21   Length=10   units=m Linecode=Line_240   
                            
                            
New Line.MVLateral10_start_1 Bus1=10_20   Bus2=10_22   Length=10   units=m Linecode=Line_120    
New Line.MVLateral10.23  Bus1=10_22   Bus2=10_23   Length=10   units=m Linecode=Line_120    
New Line.MVLateral10.24  Bus1=10_23   Bus2=10_24   Length=10   units=m Linecode=Line_120    
New Line.MVLateral10.25  Bus1=10_24   Bus2=10_25   Length=10   units=m Linecode=Line_120    
New Line.MVLateral10.26  Bus1=10_25   Bus2=10_26   Length=10   units=m Linecode=Line_120    
New Line.MVLateral10.27  Bus1=10_26   Bus2=10_27   Length=10   units=m Linecode=Line_120    
New Line.MVLateral10.28  Bus1=10_27   Bus2=10_28   Length=10   units=m Linecode=Line_120    
New Line.MVLateral10.29  Bus1=10_28   Bus2=10_29   Length=10   units=m Linecode=Line_120    
New Line.MVLateral10.30  Bus1=10_29   Bus2=10_30   Length=10   units=m Linecode=Line_120    
New Line.MVLateral10.31  Bus1=10_30   Bus2=10_31   Length=10   units=m Linecode=Line_120    
New Line.MVLateral10.32  Bus1=10_31   Bus2=10_32   Length=10   units=m Linecode=Line_120    
New Line.MVLateral10.33  Bus1=10_32   Bus2=10_33   Length=10   units=m Linecode=Line_120    
New Line.MVLateral10.34  Bus1=10_33   Bus2=10_34   Length=10   units=m Linecode=Line_120    
New Line.MVLateral10.35  Bus1=10_34   Bus2=10_35   Length=10   units=m Linecode=Line_120    
New Line.MVLateral10.36  Bus1=10_35   Bus2=10_36   Length=10   units=m Linecode=Line_120    
New Line.MVLateral10.37  Bus1=10_36   Bus2=10_37   Length=10   units=m Linecode=Line_120    
New Line.MVLateral10.38  Bus1=10_37   Bus2=10_38   Length=10   units=m Linecode=Line_120    
New Line.MVLateral10.39  Bus1=10_38   Bus2=10_39   Length=10   units=m Linecode=Line_120    
New Line.MVLateral10.40  Bus1=10_39   Bus2=10_40   Length=10   units=m Linecode=Line_120    
New Line.MVLateral10.41  Bus1=10_40   Bus2=10_41   Length=10   units=m Linecode=Line_120    
New Line.MVLateral10.42  Bus1=10_41   Bus2=10_42   Length=10   units=m Linecode=Line_120    
New Line.MVLateral10.43  Bus1=10_42   Bus2=10_43   Length=10   units=m Linecode=Line_120    
New Line.MVLateral10.44  Bus1=10_43   Bus2=10_44   Length=10   units=m Linecode=Line_120    
New Line.MVLateral10.45  Bus1=10_44   Bus2=10_45   Length=10   units=m Linecode=Line_120    
New Line.MVLateral10.46  Bus1=10_45   Bus2=10_46   Length=10   units=m Linecode=Line_120    
New Line.MVLateral10.47  Bus1=10_46   Bus2=10_47   Length=10   units=m Linecode=Line_120    
New Line.MVLateral10.48  Bus1=10_47   Bus2=10_48   Length=10   units=m Linecode=Line_120    
New Line.MVLateral10.49  Bus1=10_48   Bus2=10_49   Length=10   units=m Linecode=Line_120    
New Line.MVLateral10.50  Bus1=10_49   Bus2=10_50   Length=10   units=m Linecode=Line_120    
New Line.MVLateral10.51  Bus1=10_50   Bus2=10_51   Length=10   units=m Linecode=Line_120    
New Line.MVLateral10.52  Bus1=10_51   Bus2=10_52   Length=10   units=m Linecode=Line_120    
New Line.MVLateral10.53  Bus1=10_52   Bus2=10_53   Length=10   units=m Linecode=Line_120    
New Line.MVLateral10.54  Bus1=10_53   Bus2=10_54   Length=10   units=m Linecode=Line_120    
New Line.MVLateral10.55  Bus1=10_54   Bus2=10_55   Length=10   units=m Linecode=Line_120    
New Line.MVLateral10.56  Bus1=10_55   Bus2=10_56   Length=10   units=m Linecode=Line_120    
New Line.MVLateral10.57  Bus1=10_56   Bus2=10_57   Length=10   units=m Linecode=Line_120    
New Line.MVLateral10.58  Bus1=10_57   Bus2=10_58   Length=10   units=m Linecode=Line_120    
New Line.MVLateral10.59  Bus1=10_58   Bus2=10_59   Length=10   units=m Linecode=Line_120    
New Line.MVLateral10.60  Bus1=10_59   Bus2=10_60   Length=10   units=m Linecode=Line_120    
New Line.MVLateral10.61  Bus1=10_60   Bus2=10_61   Length=10   units=m Linecode=Line_120    
New Line.MVLateral10.62  Bus1=10_61   Bus2=10_62   Length=10   units=m Linecode=Line_120    
New Line.MVLateral10.63  Bus1=10_62   Bus2=10_63   Length=10   units=m Linecode=Line_120    
New Line.MVLateral10.64  Bus1=10_63   Bus2=10_64   Length=10   units=m Linecode=Line_120    
New Line.MVLateral10.65  Bus1=10_64   Bus2=10_65   Length=10   units=m Linecode=Line_120    
New Line.MVLateral10.66  Bus1=10_65   Bus2=10_66   Length=10   units=m Linecode=Line_120    
New Line.MVLateral10.67  Bus1=10_66   Bus2=10_67   Length=10   units=m Linecode=Line_120    
New Line.MVLateral10.68  Bus1=10_67   Bus2=10_68   Length=10   units=m Linecode=Line_120    
New Line.MVLateral10.69  Bus1=10_68   Bus2=10_69   Length=10   units=m Linecode=Line_120    
New Line.MVLateral10.70  Bus1=10_69   Bus2=10_70   Length=10   units=m Linecode=Line_120    
New Line.MVLateral10.71  Bus1=10_70   Bus2=10_71   Length=10   units=m Linecode=Line_120    
New Line.MVLateral10.72  Bus1=10_71   Bus2=10_72   Length=10   units=m Linecode=Line_120    
New Line.MVLateral10.73  Bus1=10_72   Bus2=10_73   Length=10   units=m Linecode=Line_120    
New Line.MVLateral10.74  Bus1=10_73   Bus2=10_74   Length=10   units=m Linecode=Line_120    
New Line.MVLateral10.75  Bus1=10_74   Bus2=10_75   Length=10   units=m Linecode=Line_120    
                            
New Line.MVLateral10.86  Bus1=10_85   Bus2=10_86   Length=10   units=m Linecode=Line_120    
New Line.MVLateral10.87  Bus1=10_86   Bus2=10_87   Length=10   units=m Linecode=Line_120    
New Line.MVLateral10.88  Bus1=10_87   Bus2=10_88   Length=10   units=m Linecode=Line_120    
New Line.MVLateral10.89  Bus1=10_88   Bus2=10_89   Length=10   units=m Linecode=Line_120    
New Line.MVLateral10.90  Bus1=10_89   Bus2=10_90   Length=10   units=m Linecode=Line_120    
New Line.MVLateral10.91  Bus1=10_90   Bus2=10_91   Length=10   units=m Linecode=Line_120    
New Line.MVLateral10.92  Bus1=10_91   Bus2=10_92   Length=10   units=m Linecode=Line_120    
New Line.MVLateral10.93  Bus1=10_92   Bus2=10_93   Length=10   units=m Linecode=Line_120    
New Line.MVLateral10.94  Bus1=10_93   Bus2=10_94   Length=10   units=m Linecode=Line_120    
New Line.MVLateral10.95  Bus1=10_94   Bus2=10_95   Length=10   units=m Linecode=Line_120    
New Line.MVLateral10.96  Bus1=10_95   Bus2=10_96   Length=10   units=m Linecode=Line_120    
New Line.MVLateral10.97  Bus1=10_96   Bus2=10_97   Length=10   units=m Linecode=Line_120    
New Line.MVLateral10.98  Bus1=10_97   Bus2=10_98   Length=10   units=m Linecode=Line_120    
New Line.MVLateral10.99  Bus1=10_98   Bus2=10_99   Length=10   units=m Linecode=Line_120    
New Line.MVLateral10.100 Bus1=10_99   Bus2=10_100  Length=10   units=m Linecode=Line_120    
New Line.MVLateral10.101 Bus1=10_100  Bus2=10_101  Length=10   units=m Linecode=Line_120    
New Line.MVLateral10.102 Bus1=10_101  Bus2=10_102  Length=10   units=m Linecode=Line_120    
New Line.MVLateral10.103 Bus1=10_102  Bus2=10_103  Length=10   units=m Linecode=Line_120    
New Line.MVLateral10.104 Bus1=10_103  Bus2=10_104  Length=10   units=m Linecode=Line_120    
New Line.MVLateral10.105 Bus1=10_104  Bus2=10_105  Length=10   units=m Linecode=Line_120    
New Line.MVLateral10.106 Bus1=10_105  Bus2=10_106  Length=10   units=m Linecode=Line_120    
New Line.MVLateral10.107 Bus1=10_106  Bus2=10_107  Length=10   units=m Linecode=Line_120    
New Line.MVLateral10.108 Bus1=10_107  Bus2=10_108  Length=10   units=m Linecode=Line_120    
New Line.MVLateral10.109 Bus1=10_108  Bus2=10_109  Length=10   units=m Linecode=Line_120    
New Line.MVLateral10.110 Bus1=10_109  Bus2=10_110  Length=10   units=m Linecode=Line_120    
New Line.MVLateral10.111 Bus1=10_110  Bus2=10_111  Length=10   units=m Linecode=Line_120    
New Line.MVLateral10.112 Bus1=10_111  Bus2=10_112  Length=10   units=m Linecode=Line_120    
New Line.MVLateral10.113 Bus1=10_112  Bus2=10_113  Length=10   units=m Linecode=Line_120    
New Line.MVLateral10.114 Bus1=10_113  Bus2=10_114  Length=10   units=m Linecode=Line_120    
New Line.MVLateral10.115 Bus1=10_114  Bus2=10_115  Length=10   units=m Linecode=Line_120    
New Line.MVLateral10.116 Bus1=10_115  Bus2=10_116  Length=10   units=m Linecode=Line_120    
New Line.MVLateral10.117 Bus1=10_116  Bus2=10_117  Length=10   units=m Linecode=Line_120    
New Line.MVLateral10.118 Bus1=10_117  Bus2=10_118  Length=10   units=m Linecode=Line_120    
New Line.MVLateral10.119 Bus1=10_118  Bus2=10_119  Length=10   units=m Linecode=Line_120    
New Line.MVLateral10.120 Bus1=10_119  Bus2=10_120  Length=10   units=m Linecode=Line_120    
New Line.MVLateral10.121 Bus1=10_120  Bus2=10_121  Length=10   units=m Linecode=Line_120    
New Line.MVLateral10.122 Bus1=10_121  Bus2=10_122  Length=10   units=m Linecode=Line_120    
                            
New Line.MVLateral10.123 Bus1=10_122  Bus2=10_123  Length=10   units=m Linecode=Line_120    
New Line.MVLateral10.124 Bus1=10_123  Bus2=10_124  Length=10   units=m Linecode=Line_120    
New Line.MVLateral10.125 Bus1=10_124  Bus2=10_125  Length=10   units=m Linecode=Line_120    
New Line.MVLateral10.126 Bus1=10_125  Bus2=10_126  Length=10   units=m Linecode=Line_120    
New Line.MVLateral10.127 Bus1=10_126  Bus2=10_127  Length=10   units=m Linecode=Line_120    
New Line.MVLateral10.128 Bus1=10_127  Bus2=10_128  Length=10   units=m Linecode=Line_120    
New Line.MVLateral10.129 Bus1=10_128  Bus2=10_129  Length=10   units=m Linecode=Line_120    
New Line.MVLateral10.130 Bus1=10_129  Bus2=10_130  Length=10   units=m Linecode=Line_120    
                            
New Line.MVLateral10.131 Bus1=10_130  Bus2=10_131  Length=10   units=m Linecode=Line_120    
New Line.MVLateral10.132 Bus1=10_131  Bus2=10_132  Length=10   units=m Linecode=Line_120    
New Line.MVLateral10.133 Bus1=10_132  Bus2=10_133  Length=10   units=m Linecode=Line_120    
New Line.MVLateral10.134 Bus1=10_133  Bus2=10_134  Length=10   units=m Linecode=Line_120    
New Line.MVLateral10.135 Bus1=10_134  Bus2=10_135  Length=10   units=m Linecode=Line_120    
New Line.MVLateral10.136 Bus1=10_135  Bus2=10_136  Length=10   units=m Linecode=Line_120    
New Line.MVLateral10.137 Bus1=10_136  Bus2=10_137  Length=10   units=m Linecode=Line_120    
New Line.MVLateral10.138 Bus1=10_137  Bus2=10_138  Length=10   units=m Linecode=Line_120    
New Line.MVLateral10.139 Bus1=10_138  Bus2=10_139  Length=10   units=m Linecode=Line_120    
New Line.MVLateral10.140 Bus1=10_139  Bus2=10_140  Length=10   units=m Linecode=Line_120    
New Line.MVLateral10.141 Bus1=10_140  Bus2=10_141  Length=10   units=m Linecode=Line_120    
New Line.MVLateral10_end_1   Bus1=10_141  Bus2=10_142  Length=10   units=m Linecode=Line_120    
                            
New Line.MVFeeder10.143  Bus1=10_21   Bus2=10_143  Length=10   units=m Linecode=Line_240   
New Line.MVFeeder10.144  Bus1=10_143  Bus2=10_144  Length=10   units=m Linecode=Line_240   
New Line.MVFeeder10.145  Bus1=10_144  Bus2=10_145  Length=10   units=m Linecode=Line_240   
New Line.MVFeeder10.146  Bus1=10_145  Bus2=10_146  Length=10   units=m Linecode=Line_240   
New Line.MVFeeder10.147  Bus1=10_146  Bus2=10_147  Length=10   units=m Linecode=Line_240   
New Line.MVFeeder10.148  Bus1=10_147  Bus2=10_148  Length=10   units=m Linecode=Line_240   
New Line.MVFeeder10.149  Bus1=10_148  Bus2=10_149  Length=10   units=m Linecode=Line_240   
New Line.MVFeeder10.150  Bus1=10_149  Bus2=10_150  Length=10   units=m Linecode=Line_240   
New Line.MVFeeder10.151  Bus1=10_150  Bus2=10_151  Length=10   units=m Linecode=Line_240   
New Line.MVFeeder10.152  Bus1=10_151  Bus2=10_152  Length=10   units=m Linecode=Line_240   
New Line.MVFeeder10.153  Bus1=10_152  Bus2=10_153  Length=10   units=m Linecode=Line_240   
New Line.MVFeeder10.154  Bus1=10_153  Bus2=10_154  Length=10   units=m Linecode=Line_240   
New Line.MVFeeder10.155  Bus1=10_154  Bus2=10_155  Length=10   units=m Linecode=Line_240   
New Line.MVFeeder10.156  Bus1=10_155  Bus2=10_156  Length=10   units=m Linecode=Line_240   
New Line.MVFeeder10.157  Bus1=10_156  Bus2=10_157  Length=10   units=m Linecode=Line_240   
New Line.MVFeeder10.158  Bus1=10_157  Bus2=10_158  Length=10   units=m Linecode=Line_240   
New Line.MVFeeder10.159  Bus1=10_158  Bus2=10_159  Length=10   units=m Linecode=Line_240   
New Line.MVFeeder10.160  Bus1=10_159  Bus2=10_160  Length=10   units=m Linecode=Line_240   
New Line.MVFeeder10.161  Bus1=10_160  Bus2=10_161  Length=10   units=m Linecode=Line_240   
New Line.MVFeeder10.162  Bus1=10_161  Bus2=10_162  Length=10   units=m Linecode=Line_240   
New Line.MVFeeder10.163  Bus1=10_162  Bus2=10_163  Length=10   units=m Linecode=Line_240   
New Line.MVFeeder10.164  Bus1=10_163  Bus2=10_164  Length=10   units=m Linecode=Line_240   
New Line.MVFeeder10.165  Bus1=10_164  Bus2=10_165  Length=10   units=m Linecode=Line_240   
New Line.MVFeeder10.166  Bus1=10_165  Bus2=10_166  Length=10   units=m Linecode=Line_240   
New Line.MVFeeder10.167  Bus1=10_166  Bus2=10_167  Length=10   units=m Linecode=Line_240   
New Line.MVFeeder10.168  Bus1=10_167  Bus2=10_168  Length=10   units=m Linecode=Line_240   
New Line.MVFeeder10.169  Bus1=10_168  Bus2=10_169  Length=10   units=m Linecode=Line_240   
New Line.MVFeeder10.170  Bus1=10_169  Bus2=10_170  Length=10   units=m Linecode=Line_240   
New Line.MVFeeder10.171  Bus1=10_170  Bus2=10_171  Length=10   units=m Linecode=Line_240   
New Line.MVFeeder10.172  Bus1=10_171  Bus2=10_172  Length=10   units=m Linecode=Line_240   
New Line.MVFeeder10.173  Bus1=10_172  Bus2=10_173  Length=10   units=m Linecode=Line_240   
New Line.MVFeeder10.174  Bus1=10_173  Bus2=10_174  Length=10   units=m Linecode=Line_240   
New Line.MVFeeder10.175  Bus1=10_174  Bus2=10_175  Length=10   units=m Linecode=Line_240   
New Line.MVFeeder10.176  Bus1=10_175  Bus2=10_176  Length=10   units=m Linecode=Line_240   
New Line.MVFeeder10.177  Bus1=10_176  Bus2=10_177  Length=10   units=m Linecode=Line_240   
New Line.MVFeeder10.178  Bus1=10_177  Bus2=10_178  Length=10   units=m Linecode=Line_240   
New Line.MVFeeder10.179  Bus1=10_178  Bus2=10_179  Length=10   units=m Linecode=Line_240   
New Line.MVFeeder10.180  Bus1=10_179  Bus2=10_180  Length=10   units=m Linecode=Line_240   
New Line.MVFeeder10.181  Bus1=10_180  Bus2=10_181  Length=10   units=m Linecode=Line_240   
New Line.MVFeeder10.182  Bus1=10_181  Bus2=10_182  Length=10   units=m Linecode=Line_240   
New Line.MVFeeder10.183  Bus1=10_182  Bus2=10_183  Length=10   units=m Linecode=Line_240   
                            
New Line.MVLateral10_start_2 Bus1=10_182  Bus2=10_184  Length=10   units=m Linecode=Line_120    
New Line.MVLateral10.185 Bus1=10_184  Bus2=10_185  Length=10   units=m Linecode=Line_120    
New Line.MVLateral10.186 Bus1=10_185  Bus2=10_186  Length=10   units=m Linecode=Line_120    
New Line.MVLateral10.187 Bus1=10_186  Bus2=10_187  Length=10   units=m Linecode=Line_120    
New Line.MVLateral10.188 Bus1=10_187  Bus2=10_188  Length=10   units=m Linecode=Line_120    
New Line.MVLateral10.189 Bus1=10_188  Bus2=10_189  Length=10   units=m Linecode=Line_120    
New Line.MVLateral10.190 Bus1=10_189  Bus2=10_190  Length=10   units=m Linecode=Line_120    
New Line.MVLateral10.191 Bus1=10_190  Bus2=10_191  Length=10   units=m Linecode=Line_120    
New Line.MVLateral10.192 Bus1=10_191  Bus2=10_192  Length=10   units=m Linecode=Line_120    
New Line.MVLateral10.193 Bus1=10_192  Bus2=10_193  Length=10   units=m Linecode=Line_120    
New Line.MVLateral10.194 Bus1=10_193  Bus2=10_194  Length=10   units=m Linecode=Line_120    
New Line.MVLateral10.195 Bus1=10_194  Bus2=10_195  Length=10   units=m Linecode=Line_120    
New Line.MVLateral10.196 Bus1=10_195  Bus2=10_196  Length=10   units=m Linecode=Line_120    
New Line.MVLateral10.197 Bus1=10_196  Bus2=10_197  Length=10   units=m Linecode=Line_120    
New Line.MVLateral10.198 Bus1=10_197  Bus2=10_198  Length=10   units=m Linecode=Line_120    
New Line.MVLateral10.199 Bus1=10_198  Bus2=10_199  Length=10   units=m Linecode=Line_120    
New Line.MVLateral10.200 Bus1=10_199  Bus2=10_200  Length=10   units=m Linecode=Line_120    
New Line.MVLateral10.201 Bus1=10_200  Bus2=10_201  Length=10   units=m Linecode=Line_120    
New Line.MVLateral10.202 Bus1=10_201  Bus2=10_202  Length=10   units=m Linecode=Line_120    
New Line.MVLateral10.203 Bus1=10_202  Bus2=10_203  Length=10   units=m Linecode=Line_120    
New Line.MVLateral10.204 Bus1=10_203  Bus2=10_204  Length=10   units=m Linecode=Line_120    
New Line.MVLateral10.205 Bus1=10_204  Bus2=10_205  Length=10   units=m Linecode=Line_120    
New Line.MVLateral10.206 Bus1=10_205  Bus2=10_206  Length=10   units=m Linecode=Line_120    
New Line.MVLateral10.207 Bus1=10_206  Bus2=10_207  Length=10   units=m Linecode=Line_120    
New Line.MVLateral10.208 Bus1=10_207  Bus2=10_208  Length=10   units=m Linecode=Line_120    
New Line.MVLateral10.209 Bus1=10_208  Bus2=10_209  Length=10   units=m Linecode=Line_120    
New Line.MVLateral10.210 Bus1=10_209  Bus2=10_210  Length=10   units=m Linecode=Line_120    
New Line.MVLateral10.211 Bus1=10_210  Bus2=10_211  Length=10   units=m Linecode=Line_120    
New Line.MVLateral10.212 Bus1=10_211  Bus2=10_212  Length=10   units=m Linecode=Line_120    
New Line.MVLateral10.213 Bus1=10_212  Bus2=10_213  Length=10   units=m Linecode=Line_120    
New Line.MVLateral10.214 Bus1=10_213  Bus2=10_214  Length=10   units=m Linecode=Line_120    
New Line.MVLateral10.215 Bus1=10_214  Bus2=10_215  Length=10   units=m Linecode=Line_120    
New Line.MVLateral10.216 Bus1=10_215  Bus2=10_216  Length=10   units=m Linecode=Line_120    
New Line.MVLateral10.217 Bus1=10_216  Bus2=10_217  Length=10   units=m Linecode=Line_120    
New Line.MVLateral10.218 Bus1=10_217  Bus2=10_218  Length=10   units=m Linecode=Line_120    
New Line.MVLateral10.219 Bus1=10_218  Bus2=10_219  Length=10   units=m Linecode=Line_120    
New Line.MVLateral10.220 Bus1=10_219  Bus2=10_220  Length=10   units=m Linecode=Line_120    
New Line.MVLateral10.221 Bus1=10_220  Bus2=10_221  Length=10   units=m Linecode=Line_120    
New Line.MVLateral10.222 Bus1=10_221  Bus2=10_222  Length=10   units=m Linecode=Line_120    
New Line.MVLateral10.223 Bus1=10_222  Bus2=10_223  Length=10   units=m Linecode=Line_120    
New Line.MVLateral10.224 Bus1=10_223  Bus2=10_224  Length=10   units=m Linecode=Line_120    
New Line.MVLateral10.225 Bus1=10_224  Bus2=10_225  Length=10   units=m Linecode=Line_120    
New Line.MVLateral10.226 Bus1=10_225  Bus2=10_226  Length=10   units=m Linecode=Line_120    
New Line.MVLateral10.227 Bus1=10_226  Bus2=10_227  Length=10   units=m Linecode=Line_120    
New Line.MVLateral10.228 Bus1=10_227  Bus2=10_228  Length=10   units=m Linecode=Line_120    
New Line.MVLateral10.229 Bus1=10_228  Bus2=10_229  Length=10   units=m Linecode=Line_120    
New Line.MVLateral10.230 Bus1=10_229  Bus2=10_230  Length=10   units=m Linecode=Line_120    
New Line.MVLateral10.231 Bus1=10_230  Bus2=10_231  Length=10   units=m Linecode=Line_120    
New Line.MVLateral10.232 Bus1=10_231  Bus2=10_232  Length=10   units=m Linecode=Line_120    
New Line.MVLateral10.233 Bus1=10_232  Bus2=10_233  Length=10   units=m Linecode=Line_120    
New Line.MVLateral10.234 Bus1=10_233  Bus2=10_234  Length=10   units=m Linecode=Line_120    
New Line.MVLateral10.235 Bus1=10_234  Bus2=10_235  Length=10   units=m Linecode=Line_120    
New Line.MVLateral10.236 Bus1=10_235  Bus2=10_236  Length=10   units=m Linecode=Line_120    
New Line.MVLateral10.237 Bus1=10_236  Bus2=10_237  Length=10   units=m Linecode=Line_120    
New Line.MVLateral10.238 Bus1=10_237  Bus2=10_238  Length=10   units=m Linecode=Line_120    
New Line.MVLateral10.239 Bus1=10_238  Bus2=10_239  Length=10   units=m Linecode=Line_120    
New Line.MVLateral10.240 Bus1=10_239  Bus2=10_240  Length=10   units=m Linecode=Line_120    
New Line.MVLateral10.241 Bus1=10_240  Bus2=10_241  Length=10   units=m Linecode=Line_120    
New Line.MVLateral10.242 Bus1=10_241  Bus2=10_242  Length=10   units=m Linecode=Line_120    
New Line.MVLateral10.243 Bus1=10_242  Bus2=10_243  Length=10   units=m Linecode=Line_120    
New Line.MVLateral10.244 Bus1=10_243  Bus2=10_244  Length=10   units=m Linecode=Line_120    
New Line.MVLateral10.245 Bus1=10_244  Bus2=10_245  Length=10   units=m Linecode=Line_120    
New Line.MVLateral10.246 Bus1=10_245  Bus2=10_246  Length=10   units=m Linecode=Line_120    
New Line.MVLateral10.247 Bus1=10_246  Bus2=10_247  Length=10   units=m Linecode=Line_120    
New Line.MVLateral10.248 Bus1=10_247  Bus2=10_248  Length=10   units=m Linecode=Line_120    
New Line.MVLateral10.249 Bus1=10_248  Bus2=10_249  Length=10   units=m Linecode=Line_120    
New Line.MVLateral10.250 Bus1=10_249  Bus2=10_250  Length=10   units=m Linecode=Line_120    
New Line.MVLateral10.251 Bus1=10_250  Bus2=10_251  Length=10   units=m Linecode=Line_120    
New Line.MVLateral10.252 Bus1=10_251  Bus2=10_252  Length=10   units=m Linecode=Line_120    
New Line.MVLateral10.253 Bus1=10_252  Bus2=10_253  Length=10   units=m Linecode=Line_120    
New Line.MVLateral10.254 Bus1=10_253  Bus2=10_254  Length=10   units=m Linecode=Line_120    
New Line.MVLateral10.255 Bus1=10_254  Bus2=10_255  Length=10   units=m Linecode=Line_120    
New Line.MVLateral10.256 Bus1=10_255  Bus2=10_256  Length=10   units=m Linecode=Line_120    
New Line.MVLateral10.257 Bus1=10_256  Bus2=10_257  Length=10   units=m Linecode=Line_120    
New Line.MVLateral10.258 Bus1=10_257  Bus2=10_258  Length=10   units=m Linecode=Line_120    
New Line.MVLateral10.259 Bus1=10_258  Bus2=10_259  Length=10   units=m Linecode=Line_120    
New Line.MVLateral10.260 Bus1=10_259  Bus2=10_260  Length=10   units=m Linecode=Line_120    
New Line.MVLateral10.261 Bus1=10_260  Bus2=10_261  Length=10   units=m Linecode=Line_120    
New Line.MVLateral10.262 Bus1=10_261  Bus2=10_262  Length=10   units=m Linecode=Line_120    
New Line.MVLateral10.263 Bus1=10_262  Bus2=10_263  Length=10   units=m Linecode=Line_120    
New Line.MVLateral10.264 Bus1=10_263  Bus2=10_264  Length=10   units=m Linecode=Line_120    
New Line.MVLateral10.265 Bus1=10_264  Bus2=10_265  Length=10   units=m Linecode=Line_120    
New Line.MVLateral10.266 Bus1=10_265  Bus2=10_266  Length=10   units=m Linecode=Line_120    
New Line.MVLateral10.267 Bus1=10_266  Bus2=10_267  Length=10   units=m Linecode=Line_120    
New Line.MVLateral10.268 Bus1=10_267  Bus2=10_268  Length=10   units=m Linecode=Line_120    
New Line.MVLateral10.269 Bus1=10_268  Bus2=10_269  Length=10   units=m Linecode=Line_120    
New Line.MVLateral10.270 Bus1=10_269  Bus2=10_270  Length=10   units=m Linecode=Line_120    
New Line.MVLateral10.271 Bus1=10_270  Bus2=10_271  Length=10   units=m Linecode=Line_120    
New Line.MVLateral10.272 Bus1=10_271  Bus2=10_272  Length=10   units=m Linecode=Line_120    
New Line.MVLateral10.273 Bus1=10_272  Bus2=10_273  Length=10   units=m Linecode=Line_120    
New Line.MVLateral10.274 Bus1=10_273  Bus2=10_274  Length=10   units=m Linecode=Line_120    
New Line.MVLateral10.275 Bus1=10_274  Bus2=10_275  Length=10   units=m Linecode=Line_120    
New Line.MVLateral10.276 Bus1=10_275  Bus2=10_276  Length=10   units=m Linecode=Line_120    
New Line.MVLateral10.277 Bus1=10_276  Bus2=10_277  Length=10   units=m Linecode=Line_120    
New Line.MVLateral10.278 Bus1=10_277  Bus2=10_278  Length=10   units=m Linecode=Line_120    
New Line.MVLateral10.279 Bus1=10_278  Bus2=10_279  Length=10   units=m Linecode=Line_120    
New Line.MVLateral10.280 Bus1=10_279  Bus2=10_280  Length=10   units=m Linecode=Line_120    
New Line.MVLateral10.281 Bus1=10_280  Bus2=10_281  Length=10   units=m Linecode=Line_120    
New Line.MVLateral10.282 Bus1=10_281  Bus2=10_282  Length=10   units=m Linecode=Line_120    
New Line.MVLateral10.283 Bus1=10_282  Bus2=10_283  Length=10   units=m Linecode=Line_120    
New Line.MVLateral10.284 Bus1=10_283  Bus2=10_284  Length=10   units=m Linecode=Line_120    
New Line.MVLateral10.285 Bus1=10_284  Bus2=10_285  Length=10   units=m Linecode=Line_120    
New Line.MVLateral10.286 Bus1=10_285  Bus2=10_286  Length=10   units=m Linecode=Line_120    
New Line.MVLateral10.287 Bus1=10_286  Bus2=10_287  Length=10   units=m Linecode=Line_120    
New Line.MVLateral10.288 Bus1=10_287  Bus2=10_288  Length=10   units=m Linecode=Line_120    
New Line.MVLateral10.289 Bus1=10_288  Bus2=10_289  Length=10   units=m Linecode=Line_120    
New Line.MVLateral10.290 Bus1=10_289  Bus2=10_290  Length=10   units=m Linecode=Line_120    
New Line.MVLateral10.291 Bus1=10_290  Bus2=10_291  Length=10   units=m Linecode=Line_120    
New Line.MVLateral10.292 Bus1=10_291  Bus2=10_292  Length=10   units=m Linecode=Line_120    
New Line.MVLateral10.293 Bus1=10_292  Bus2=10_293  Length=10   units=m Linecode=Line_120    
New Line.MVLateral10.294 Bus1=10_293  Bus2=10_294  Length=10   units=m Linecode=Line_120    
New Line.MVLateral10.295 Bus1=10_294  Bus2=10_295  Length=10   units=m Linecode=Line_120    
New Line.MVLateral10.296 Bus1=10_295  Bus2=10_296  Length=10   units=m Linecode=Line_120    
New Line.MVLateral10.297 Bus1=10_296  Bus2=10_297  Length=10   units=m Linecode=Line_120    
New Line.MVLateral10.298 Bus1=10_297  Bus2=10_298  Length=10   units=m Linecode=Line_120    
New Line.MVLateral10.299 Bus1=10_298  Bus2=10_299  Length=10   units=m Linecode=Line_120    
New Line.MVLateral10.300 Bus1=10_299  Bus2=10_300  Length=10   units=m Linecode=Line_120    
New Line.MVLateral10.301 Bus1=10_300  Bus2=10_301  Length=10   units=m Linecode=Line_120    
New Line.MVLateral10.302 Bus1=10_301  Bus2=10_302  Length=10   units=m Linecode=Line_120    
New Line.MVLateral10.303 Bus1=10_302  Bus2=10_303  Length=10   units=m Linecode=Line_120    
New Line.MVLateral10_end_2   Bus1=10_303  Bus2=10_304  Length=10   units=m Linecode=Line_120    
                            
New Line.MVFeeder10.305  Bus1=10_183  Bus2=10_305  Length=10   units=m Linecode=Line_240   
New Line.MVFeeder10.306  Bus1=10_305  Bus2=10_306  Length=10   units=m Linecode=Line_240   
New Line.MVFeeder10.307  Bus1=10_306  Bus2=10_307  Length=10   units=m Linecode=Line_240   
New Line.MVFeeder10.308  Bus1=10_307  Bus2=10_308  Length=10   units=m Linecode=Line_240   
New Line.MVFeeder10.309  Bus1=10_308  Bus2=10_309  Length=10   units=m Linecode=Line_240   
New Line.MVFeeder10.310  Bus1=10_309  Bus2=10_310  Length=10   units=m Linecode=Line_240   
New Line.MVFeeder10.311  Bus1=10_310  Bus2=10_311  Length=10   units=m Linecode=Line_240   
New Line.MVFeeder10.312  Bus1=10_311  Bus2=10_312  Length=10   units=m Linecode=Line_240   
New Line.MVFeeder10.313  Bus1=10_312  Bus2=10_313  Length=10   units=m Linecode=Line_240   
New Line.MVFeeder10.314  Bus1=10_313  Bus2=10_314  Length=10   units=m Linecode=Line_240   
New Line.MVFeeder10.315  Bus1=10_314  Bus2=10_315  Length=10   units=m Linecode=Line_240   
New Line.MVFeeder10.316  Bus1=10_315  Bus2=10_316  Length=10   units=m Linecode=Line_240   
New Line.MVFeeder10.317  Bus1=10_316  Bus2=10_317  Length=10   units=m Linecode=Line_240   
New Line.MVFeeder10.318  Bus1=10_317  Bus2=10_318  Length=10   units=m Linecode=Line_240   
New Line.MVFeeder10.319  Bus1=10_318  Bus2=10_319  Length=10   units=m Linecode=Line_240   
New Line.MVFeeder10.320  Bus1=10_319  Bus2=10_320  Length=10   units=m Linecode=Line_240   
New Line.MVFeeder10.321  Bus1=10_320  Bus2=10_321  Length=10   units=m Linecode=Line_240   
New Line.MVFeeder10.322  Bus1=10_321  Bus2=10_322  Length=10   units=m Linecode=Line_240   
New Line.MVFeeder10.323  Bus1=10_322  Bus2=10_323  Length=10   units=m Linecode=Line_240   
New Line.MVFeeder10.324  Bus1=10_323  Bus2=10_324  Length=10   units=m Linecode=Line_240   
New Line.MVFeeder10.325  Bus1=10_324  Bus2=10_325  Length=10   units=m Linecode=Line_240   
New Line.MVFeeder10.326  Bus1=10_325  Bus2=10_326  Length=10   units=m Linecode=Line_240   
New Line.MVFeeder10.327  Bus1=10_326  Bus2=10_327  Length=10   units=m Linecode=Line_240   
New Line.MVFeeder10.328  Bus1=10_327  Bus2=10_328  Length=10   units=m Linecode=Line_240   
New Line.MVFeeder10.329  Bus1=10_328  Bus2=10_329  Length=10   units=m Linecode=Line_240   
New Line.MVFeeder10.330  Bus1=10_329  Bus2=10_330  Length=10   units=m Linecode=Line_240   