New Line.MVFeeder6.1    Bus1=Main_Busbar    Bus2=6_1    Length=10   units=m Linecode=Line_240   
New Line.MVFeeder6.2    Bus1=6_1    Bus2=6_2    Length=10   units=m Linecode=Line_240   
New Line.MVFeeder6.3    Bus1=6_2    Bus2=6_3    Length=10   units=m Linecode=Line_240   
New Line.MVFeeder6.4    Bus1=6_3    Bus2=6_4    Length=10   units=m Linecode=Line_240   
New Line.MVFeeder6.5    Bus1=6_4    Bus2=6_5    Length=10   units=m Linecode=Line_240   
New Line.MVFeeder6.6    Bus1=6_5    Bus2=6_6    Length=10   units=m Linecode=Line_240   
New Line.MVFeeder6.7    Bus1=6_6    Bus2=6_7    Length=10   units=m Linecode=Line_240   
New Line.MVFeeder6.8    Bus1=6_7    Bus2=6_8    Length=10   units=m Linecode=Line_240   
New Line.MVFeeder6.9    Bus1=6_8    Bus2=6_9    Length=10   units=m Linecode=Line_240   
New Line.MVFeeder6.10   Bus1=6_9    Bus2=6_10   Length=10   units=m Linecode=Line_240   
New Line.MVFeeder6.11   Bus1=6_10   Bus2=6_11   Length=10   units=m Linecode=Line_240   
New Line.MVFeeder6.12   Bus1=6_11   Bus2=6_12   Length=10   units=m Linecode=Line_240   
New Line.MVFeeder6.13   Bus1=6_12   Bus2=6_13   Length=10   units=m Linecode=Line_240   
New Line.MVFeeder6.14   Bus1=6_13   Bus2=6_14   Length=10   units=m Linecode=Line_240   
New Line.MVFeeder6.15   Bus1=6_14   Bus2=6_15   Length=10   units=m Linecode=Line_240   
New Line.MVFeeder6.16   Bus1=6_15   Bus2=6_16   Length=10   units=m Linecode=Line_240   
New Line.MVFeeder6.17   Bus1=6_16   Bus2=6_17   Length=10   units=m Linecode=Line_240   
New Line.MVFeeder6.18   Bus1=6_17   Bus2=6_18   Length=10   units=m Linecode=Line_240   
New Line.MVFeeder6.19   Bus1=6_18   Bus2=6_19   Length=10   units=m Linecode=Line_240   
New Line.MVFeeder6.20   Bus1=6_19   Bus2=6_20   Length=10   units=m Linecode=Line_240   
New Line.MVFeeder6.21   Bus1=6_20   Bus2=6_21   Length=10   units=m Linecode=Line_240   
                            
                            
New Line.MVLateral6_start_1 Bus1=6_20   Bus2=6_22   Length=10   units=m Linecode=Line_120    
New Line.MVLateral6.23  Bus1=6_22   Bus2=6_23   Length=10   units=m Linecode=Line_120    
New Line.MVLateral6.24  Bus1=6_23   Bus2=6_24   Length=10   units=m Linecode=Line_120    
New Line.MVLateral6.25  Bus1=6_24   Bus2=6_25   Length=10   units=m Linecode=Line_120    
New Line.MVLateral6.26  Bus1=6_25   Bus2=6_26   Length=10   units=m Linecode=Line_120    
New Line.MVLateral6.27  Bus1=6_26   Bus2=6_27   Length=10   units=m Linecode=Line_120    
New Line.MVLateral6.28  Bus1=6_27   Bus2=6_28   Length=10   units=m Linecode=Line_120    
New Line.MVLateral6.29  Bus1=6_28   Bus2=6_29   Length=10   units=m Linecode=Line_120    
New Line.MVLateral6.30  Bus1=6_29   Bus2=6_30   Length=10   units=m Linecode=Line_120    
New Line.MVLateral6.31  Bus1=6_30   Bus2=6_31   Length=10   units=m Linecode=Line_120    
New Line.MVLateral6.32  Bus1=6_31   Bus2=6_32   Length=10   units=m Linecode=Line_120    
New Line.MVLateral6.33  Bus1=6_32   Bus2=6_33   Length=10   units=m Linecode=Line_120    
New Line.MVLateral6.34  Bus1=6_33   Bus2=6_34   Length=10   units=m Linecode=Line_120    
New Line.MVLateral6.35  Bus1=6_34   Bus2=6_35   Length=10   units=m Linecode=Line_120    
New Line.MVLateral6.36  Bus1=6_35   Bus2=6_36   Length=10   units=m Linecode=Line_120    
New Line.MVLateral6.37  Bus1=6_36   Bus2=6_37   Length=10   units=m Linecode=Line_120    
New Line.MVLateral6.38  Bus1=6_37   Bus2=6_38   Length=10   units=m Linecode=Line_120    
New Line.MVLateral6.39  Bus1=6_38   Bus2=6_39   Length=10   units=m Linecode=Line_120    
New Line.MVLateral6.40  Bus1=6_39   Bus2=6_40   Length=10   units=m Linecode=Line_120    
New Line.MVLateral6.41  Bus1=6_40   Bus2=6_41   Length=10   units=m Linecode=Line_120    
New Line.MVLateral6.42  Bus1=6_41   Bus2=6_42   Length=10   units=m Linecode=Line_120    
New Line.MVLateral6.43  Bus1=6_42   Bus2=6_43   Length=10   units=m Linecode=Line_120    
New Line.MVLateral6.44  Bus1=6_43   Bus2=6_44   Length=10   units=m Linecode=Line_120    
New Line.MVLateral6.45  Bus1=6_44   Bus2=6_45   Length=10   units=m Linecode=Line_120    
New Line.MVLateral6.46  Bus1=6_45   Bus2=6_46   Length=10   units=m Linecode=Line_120    
New Line.MVLateral6.47  Bus1=6_46   Bus2=6_47   Length=10   units=m Linecode=Line_120    
New Line.MVLateral6.48  Bus1=6_47   Bus2=6_48   Length=10   units=m Linecode=Line_120    
New Line.MVLateral6.49  Bus1=6_48   Bus2=6_49   Length=10   units=m Linecode=Line_120    
New Line.MVLateral6.50  Bus1=6_49   Bus2=6_50   Length=10   units=m Linecode=Line_120    
New Line.MVLateral6.51  Bus1=6_50   Bus2=6_51   Length=10   units=m Linecode=Line_120    
New Line.MVLateral6.52  Bus1=6_51   Bus2=6_52   Length=10   units=m Linecode=Line_120    
New Line.MVLateral6.53  Bus1=6_52   Bus2=6_53   Length=10   units=m Linecode=Line_120    
New Line.MVLateral6.54  Bus1=6_53   Bus2=6_54   Length=10   units=m Linecode=Line_120    
New Line.MVLateral6.55  Bus1=6_54   Bus2=6_55   Length=10   units=m Linecode=Line_120    
New Line.MVLateral6.56  Bus1=6_55   Bus2=6_56   Length=10   units=m Linecode=Line_120    
New Line.MVLateral6.57  Bus1=6_56   Bus2=6_57   Length=10   units=m Linecode=Line_120    
New Line.MVLateral6.58  Bus1=6_57   Bus2=6_58   Length=10   units=m Linecode=Line_120    
New Line.MVLateral6.59  Bus1=6_58   Bus2=6_59   Length=10   units=m Linecode=Line_120    
New Line.MVLateral6.60  Bus1=6_59   Bus2=6_60   Length=10   units=m Linecode=Line_120    
New Line.MVLateral6.61  Bus1=6_60   Bus2=6_61   Length=10   units=m Linecode=Line_120    
New Line.MVLateral6.62  Bus1=6_61   Bus2=6_62   Length=10   units=m Linecode=Line_120    
New Line.MVLateral6.63  Bus1=6_62   Bus2=6_63   Length=10   units=m Linecode=Line_120    
New Line.MVLateral6.64  Bus1=6_63   Bus2=6_64   Length=10   units=m Linecode=Line_120    
New Line.MVLateral6.65  Bus1=6_64   Bus2=6_65   Length=10   units=m Linecode=Line_120    
New Line.MVLateral6.66  Bus1=6_65   Bus2=6_66   Length=10   units=m Linecode=Line_120    
New Line.MVLateral6.67  Bus1=6_66   Bus2=6_67   Length=10   units=m Linecode=Line_120    
New Line.MVLateral6.68  Bus1=6_67   Bus2=6_68   Length=10   units=m Linecode=Line_120    
New Line.MVLateral6.69  Bus1=6_68   Bus2=6_69   Length=10   units=m Linecode=Line_120    
New Line.MVLateral6.70  Bus1=6_69   Bus2=6_70   Length=10   units=m Linecode=Line_120    
New Line.MVLateral6.71  Bus1=6_70   Bus2=6_71   Length=10   units=m Linecode=Line_120    
New Line.MVLateral6.72  Bus1=6_71   Bus2=6_72   Length=10   units=m Linecode=Line_120    
New Line.MVLateral6.73  Bus1=6_72   Bus2=6_73   Length=10   units=m Linecode=Line_120    
New Line.MVLateral6.74  Bus1=6_73   Bus2=6_74   Length=10   units=m Linecode=Line_120    
New Line.MVLateral6.75  Bus1=6_74   Bus2=6_75   Length=10   units=m Linecode=Line_120    
                            
New Line.MVLateral6.86  Bus1=6_85   Bus2=6_86   Length=10   units=m Linecode=Line_120    
New Line.MVLateral6.87  Bus1=6_86   Bus2=6_87   Length=10   units=m Linecode=Line_120    
New Line.MVLateral6.88  Bus1=6_87   Bus2=6_88   Length=10   units=m Linecode=Line_120    
New Line.MVLateral6.89  Bus1=6_88   Bus2=6_89   Length=10   units=m Linecode=Line_120    
New Line.MVLateral6.90  Bus1=6_89   Bus2=6_90   Length=10   units=m Linecode=Line_120    
New Line.MVLateral6.91  Bus1=6_90   Bus2=6_91   Length=10   units=m Linecode=Line_120    
New Line.MVLateral6.92  Bus1=6_91   Bus2=6_92   Length=10   units=m Linecode=Line_120    
New Line.MVLateral6.93  Bus1=6_92   Bus2=6_93   Length=10   units=m Linecode=Line_120    
New Line.MVLateral6.94  Bus1=6_93   Bus2=6_94   Length=10   units=m Linecode=Line_120    
New Line.MVLateral6.95  Bus1=6_94   Bus2=6_95   Length=10   units=m Linecode=Line_120    
New Line.MVLateral6.96  Bus1=6_95   Bus2=6_96   Length=10   units=m Linecode=Line_120    
New Line.MVLateral6.97  Bus1=6_96   Bus2=6_97   Length=10   units=m Linecode=Line_120    
New Line.MVLateral6.98  Bus1=6_97   Bus2=6_98   Length=10   units=m Linecode=Line_120    
New Line.MVLateral6.99  Bus1=6_98   Bus2=6_99   Length=10   units=m Linecode=Line_120    
New Line.MVLateral6.100 Bus1=6_99   Bus2=6_100  Length=10   units=m Linecode=Line_120    
New Line.MVLateral6.101 Bus1=6_100  Bus2=6_101  Length=10   units=m Linecode=Line_120    
New Line.MVLateral6.102 Bus1=6_101  Bus2=6_102  Length=10   units=m Linecode=Line_120    
New Line.MVLateral6.103 Bus1=6_102  Bus2=6_103  Length=10   units=m Linecode=Line_120    
New Line.MVLateral6.104 Bus1=6_103  Bus2=6_104  Length=10   units=m Linecode=Line_120    
New Line.MVLateral6.105 Bus1=6_104  Bus2=6_105  Length=10   units=m Linecode=Line_120    
New Line.MVLateral6.106 Bus1=6_105  Bus2=6_106  Length=10   units=m Linecode=Line_120    
New Line.MVLateral6.107 Bus1=6_106  Bus2=6_107  Length=10   units=m Linecode=Line_120    
New Line.MVLateral6.108 Bus1=6_107  Bus2=6_108  Length=10   units=m Linecode=Line_120    
New Line.MVLateral6.109 Bus1=6_108  Bus2=6_109  Length=10   units=m Linecode=Line_120    
New Line.MVLateral6.110 Bus1=6_109  Bus2=6_110  Length=10   units=m Linecode=Line_120    
New Line.MVLateral6.111 Bus1=6_110  Bus2=6_111  Length=10   units=m Linecode=Line_120    
New Line.MVLateral6.112 Bus1=6_111  Bus2=6_112  Length=10   units=m Linecode=Line_120    
New Line.MVLateral6.113 Bus1=6_112  Bus2=6_113  Length=10   units=m Linecode=Line_120    
New Line.MVLateral6.114 Bus1=6_113  Bus2=6_114  Length=10   units=m Linecode=Line_120    
New Line.MVLateral6.115 Bus1=6_114  Bus2=6_115  Length=10   units=m Linecode=Line_120    
New Line.MVLateral6.116 Bus1=6_115  Bus2=6_116  Length=10   units=m Linecode=Line_120    
New Line.MVLateral6.117 Bus1=6_116  Bus2=6_117  Length=10   units=m Linecode=Line_120    
New Line.MVLateral6.118 Bus1=6_117  Bus2=6_118  Length=10   units=m Linecode=Line_120    
New Line.MVLateral6.119 Bus1=6_118  Bus2=6_119  Length=10   units=m Linecode=Line_120    
New Line.MVLateral6.120 Bus1=6_119  Bus2=6_120  Length=10   units=m Linecode=Line_120    
New Line.MVLateral6.121 Bus1=6_120  Bus2=6_121  Length=10   units=m Linecode=Line_120    
New Line.MVLateral6.122 Bus1=6_121  Bus2=6_122  Length=10   units=m Linecode=Line_120    
                            
New Line.MVLateral6.123 Bus1=6_122  Bus2=6_123  Length=10   units=m Linecode=Line_120    
New Line.MVLateral6.124 Bus1=6_123  Bus2=6_124  Length=10   units=m Linecode=Line_120    
New Line.MVLateral6.125 Bus1=6_124  Bus2=6_125  Length=10   units=m Linecode=Line_120    
New Line.MVLateral6.126 Bus1=6_125  Bus2=6_126  Length=10   units=m Linecode=Line_120    
New Line.MVLateral6.127 Bus1=6_126  Bus2=6_127  Length=10   units=m Linecode=Line_120    
New Line.MVLateral6.128 Bus1=6_127  Bus2=6_128  Length=10   units=m Linecode=Line_120    
New Line.MVLateral6.129 Bus1=6_128  Bus2=6_129  Length=10   units=m Linecode=Line_120    
New Line.MVLateral6.130 Bus1=6_129  Bus2=6_130  Length=10   units=m Linecode=Line_120    
                            
New Line.MVLateral6.131 Bus1=6_130  Bus2=6_131  Length=10   units=m Linecode=Line_120    
New Line.MVLateral6.132 Bus1=6_131  Bus2=6_132  Length=10   units=m Linecode=Line_120    
New Line.MVLateral6.133 Bus1=6_132  Bus2=6_133  Length=10   units=m Linecode=Line_120    
New Line.MVLateral6.134 Bus1=6_133  Bus2=6_134  Length=10   units=m Linecode=Line_120    
New Line.MVLateral6.135 Bus1=6_134  Bus2=6_135  Length=10   units=m Linecode=Line_120    
New Line.MVLateral6.136 Bus1=6_135  Bus2=6_136  Length=10   units=m Linecode=Line_120    
New Line.MVLateral6.137 Bus1=6_136  Bus2=6_137  Length=10   units=m Linecode=Line_120    
New Line.MVLateral6.138 Bus1=6_137  Bus2=6_138  Length=10   units=m Linecode=Line_120    
New Line.MVLateral6.139 Bus1=6_138  Bus2=6_139  Length=10   units=m Linecode=Line_120    
New Line.MVLateral6.140 Bus1=6_139  Bus2=6_140  Length=10   units=m Linecode=Line_120    
New Line.MVLateral6.141 Bus1=6_140  Bus2=6_141  Length=10   units=m Linecode=Line_120    
New Line.MVLateral6_end_1   Bus1=6_141  Bus2=6_142  Length=10   units=m Linecode=Line_120    
                            
New Line.MVFeeder6.143  Bus1=6_21   Bus2=6_143  Length=10   units=m Linecode=Line_240   
New Line.MVFeeder6.144  Bus1=6_143  Bus2=6_144  Length=10   units=m Linecode=Line_240   
New Line.MVFeeder6.145  Bus1=6_144  Bus2=6_145  Length=10   units=m Linecode=Line_240   
New Line.MVFeeder6.146  Bus1=6_145  Bus2=6_146  Length=10   units=m Linecode=Line_240   
New Line.MVFeeder6.147  Bus1=6_146  Bus2=6_147  Length=10   units=m Linecode=Line_240   
New Line.MVFeeder6.148  Bus1=6_147  Bus2=6_148  Length=10   units=m Linecode=Line_240   
New Line.MVFeeder6.149  Bus1=6_148  Bus2=6_149  Length=10   units=m Linecode=Line_240   
New Line.MVFeeder6.150  Bus1=6_149  Bus2=6_150  Length=10   units=m Linecode=Line_240   
New Line.MVFeeder6.151  Bus1=6_150  Bus2=6_151  Length=10   units=m Linecode=Line_240   
New Line.MVFeeder6.152  Bus1=6_151  Bus2=6_152  Length=10   units=m Linecode=Line_240   
New Line.MVFeeder6.153  Bus1=6_152  Bus2=6_153  Length=10   units=m Linecode=Line_240   
New Line.MVFeeder6.154  Bus1=6_153  Bus2=6_154  Length=10   units=m Linecode=Line_240   
New Line.MVFeeder6.155  Bus1=6_154  Bus2=6_155  Length=10   units=m Linecode=Line_240   
New Line.MVFeeder6.156  Bus1=6_155  Bus2=6_156  Length=10   units=m Linecode=Line_240   
New Line.MVFeeder6.157  Bus1=6_156  Bus2=6_157  Length=10   units=m Linecode=Line_240   
New Line.MVFeeder6.158  Bus1=6_157  Bus2=6_158  Length=10   units=m Linecode=Line_240   
New Line.MVFeeder6.159  Bus1=6_158  Bus2=6_159  Length=10   units=m Linecode=Line_240   
New Line.MVFeeder6.160  Bus1=6_159  Bus2=6_160  Length=10   units=m Linecode=Line_240   
New Line.MVFeeder6.161  Bus1=6_160  Bus2=6_161  Length=10   units=m Linecode=Line_240   
New Line.MVFeeder6.162  Bus1=6_161  Bus2=6_162  Length=10   units=m Linecode=Line_240   
New Line.MVFeeder6.163  Bus1=6_162  Bus2=6_163  Length=10   units=m Linecode=Line_240   
New Line.MVFeeder6.164  Bus1=6_163  Bus2=6_164  Length=10   units=m Linecode=Line_240   
New Line.MVFeeder6.165  Bus1=6_164  Bus2=6_165  Length=10   units=m Linecode=Line_240   
New Line.MVFeeder6.166  Bus1=6_165  Bus2=6_166  Length=10   units=m Linecode=Line_240   
New Line.MVFeeder6.167  Bus1=6_166  Bus2=6_167  Length=10   units=m Linecode=Line_240   
New Line.MVFeeder6.168  Bus1=6_167  Bus2=6_168  Length=10   units=m Linecode=Line_240   
New Line.MVFeeder6.169  Bus1=6_168  Bus2=6_169  Length=10   units=m Linecode=Line_240   
New Line.MVFeeder6.170  Bus1=6_169  Bus2=6_170  Length=10   units=m Linecode=Line_240   
New Line.MVFeeder6.171  Bus1=6_170  Bus2=6_171  Length=10   units=m Linecode=Line_240   
New Line.MVFeeder6.172  Bus1=6_171  Bus2=6_172  Length=10   units=m Linecode=Line_240   
New Line.MVFeeder6.173  Bus1=6_172  Bus2=6_173  Length=10   units=m Linecode=Line_240   
New Line.MVFeeder6.174  Bus1=6_173  Bus2=6_174  Length=10   units=m Linecode=Line_240   
New Line.MVFeeder6.175  Bus1=6_174  Bus2=6_175  Length=10   units=m Linecode=Line_240   
New Line.MVFeeder6.176  Bus1=6_175  Bus2=6_176  Length=10   units=m Linecode=Line_240   
New Line.MVFeeder6.177  Bus1=6_176  Bus2=6_177  Length=10   units=m Linecode=Line_240   
New Line.MVFeeder6.178  Bus1=6_177  Bus2=6_178  Length=10   units=m Linecode=Line_240   
New Line.MVFeeder6.179  Bus1=6_178  Bus2=6_179  Length=10   units=m Linecode=Line_240   
New Line.MVFeeder6.180  Bus1=6_179  Bus2=6_180  Length=10   units=m Linecode=Line_240   
New Line.MVFeeder6.181  Bus1=6_180  Bus2=6_181  Length=10   units=m Linecode=Line_240   
New Line.MVFeeder6.182  Bus1=6_181  Bus2=6_182  Length=10   units=m Linecode=Line_240   
New Line.MVFeeder6.183  Bus1=6_182  Bus2=6_183  Length=10   units=m Linecode=Line_240   
                            
New Line.MVLateral6_start_2 Bus1=6_182  Bus2=6_184  Length=10   units=m Linecode=Line_120    
New Line.MVLateral6.185 Bus1=6_184  Bus2=6_185  Length=10   units=m Linecode=Line_120    
New Line.MVLateral6.186 Bus1=6_185  Bus2=6_186  Length=10   units=m Linecode=Line_120    
New Line.MVLateral6.187 Bus1=6_186  Bus2=6_187  Length=10   units=m Linecode=Line_120    
New Line.MVLateral6.188 Bus1=6_187  Bus2=6_188  Length=10   units=m Linecode=Line_120    
New Line.MVLateral6.189 Bus1=6_188  Bus2=6_189  Length=10   units=m Linecode=Line_120    
New Line.MVLateral6.190 Bus1=6_189  Bus2=6_190  Length=10   units=m Linecode=Line_120    
New Line.MVLateral6.191 Bus1=6_190  Bus2=6_191  Length=10   units=m Linecode=Line_120    
New Line.MVLateral6.192 Bus1=6_191  Bus2=6_192  Length=10   units=m Linecode=Line_120    
New Line.MVLateral6.193 Bus1=6_192  Bus2=6_193  Length=10   units=m Linecode=Line_120    
New Line.MVLateral6.194 Bus1=6_193  Bus2=6_194  Length=10   units=m Linecode=Line_120    
New Line.MVLateral6.195 Bus1=6_194  Bus2=6_195  Length=10   units=m Linecode=Line_120    
New Line.MVLateral6.196 Bus1=6_195  Bus2=6_196  Length=10   units=m Linecode=Line_120    
New Line.MVLateral6.197 Bus1=6_196  Bus2=6_197  Length=10   units=m Linecode=Line_120    
New Line.MVLateral6.198 Bus1=6_197  Bus2=6_198  Length=10   units=m Linecode=Line_120    
New Line.MVLateral6.199 Bus1=6_198  Bus2=6_199  Length=10   units=m Linecode=Line_120    
New Line.MVLateral6.200 Bus1=6_199  Bus2=6_200  Length=10   units=m Linecode=Line_120    
New Line.MVLateral6.201 Bus1=6_200  Bus2=6_201  Length=10   units=m Linecode=Line_120    
New Line.MVLateral6.202 Bus1=6_201  Bus2=6_202  Length=10   units=m Linecode=Line_120    
New Line.MVLateral6.203 Bus1=6_202  Bus2=6_203  Length=10   units=m Linecode=Line_120    
New Line.MVLateral6.204 Bus1=6_203  Bus2=6_204  Length=10   units=m Linecode=Line_120    
New Line.MVLateral6.205 Bus1=6_204  Bus2=6_205  Length=10   units=m Linecode=Line_120    
New Line.MVLateral6.206 Bus1=6_205  Bus2=6_206  Length=10   units=m Linecode=Line_120    
New Line.MVLateral6.207 Bus1=6_206  Bus2=6_207  Length=10   units=m Linecode=Line_120    
New Line.MVLateral6.208 Bus1=6_207  Bus2=6_208  Length=10   units=m Linecode=Line_120    
New Line.MVLateral6.209 Bus1=6_208  Bus2=6_209  Length=10   units=m Linecode=Line_120    
New Line.MVLateral6.210 Bus1=6_209  Bus2=6_210  Length=10   units=m Linecode=Line_120    
New Line.MVLateral6.211 Bus1=6_210  Bus2=6_211  Length=10   units=m Linecode=Line_120    
New Line.MVLateral6.212 Bus1=6_211  Bus2=6_212  Length=10   units=m Linecode=Line_120    
New Line.MVLateral6.213 Bus1=6_212  Bus2=6_213  Length=10   units=m Linecode=Line_120    
New Line.MVLateral6.214 Bus1=6_213  Bus2=6_214  Length=10   units=m Linecode=Line_120    
New Line.MVLateral6.215 Bus1=6_214  Bus2=6_215  Length=10   units=m Linecode=Line_120    
New Line.MVLateral6.216 Bus1=6_215  Bus2=6_216  Length=10   units=m Linecode=Line_120    
New Line.MVLateral6.217 Bus1=6_216  Bus2=6_217  Length=10   units=m Linecode=Line_120    
New Line.MVLateral6.218 Bus1=6_217  Bus2=6_218  Length=10   units=m Linecode=Line_120    
New Line.MVLateral6.219 Bus1=6_218  Bus2=6_219  Length=10   units=m Linecode=Line_120    
New Line.MVLateral6.220 Bus1=6_219  Bus2=6_220  Length=10   units=m Linecode=Line_120    
New Line.MVLateral6.221 Bus1=6_220  Bus2=6_221  Length=10   units=m Linecode=Line_120    
New Line.MVLateral6.222 Bus1=6_221  Bus2=6_222  Length=10   units=m Linecode=Line_120    
New Line.MVLateral6.223 Bus1=6_222  Bus2=6_223  Length=10   units=m Linecode=Line_120    
New Line.MVLateral6.224 Bus1=6_223  Bus2=6_224  Length=10   units=m Linecode=Line_120    
New Line.MVLateral6.225 Bus1=6_224  Bus2=6_225  Length=10   units=m Linecode=Line_120    
New Line.MVLateral6.226 Bus1=6_225  Bus2=6_226  Length=10   units=m Linecode=Line_120    
New Line.MVLateral6.227 Bus1=6_226  Bus2=6_227  Length=10   units=m Linecode=Line_120    
New Line.MVLateral6.228 Bus1=6_227  Bus2=6_228  Length=10   units=m Linecode=Line_120    
New Line.MVLateral6.229 Bus1=6_228  Bus2=6_229  Length=10   units=m Linecode=Line_120    
New Line.MVLateral6.230 Bus1=6_229  Bus2=6_230  Length=10   units=m Linecode=Line_120    
New Line.MVLateral6.231 Bus1=6_230  Bus2=6_231  Length=10   units=m Linecode=Line_120    
New Line.MVLateral6.232 Bus1=6_231  Bus2=6_232  Length=10   units=m Linecode=Line_120    
New Line.MVLateral6.233 Bus1=6_232  Bus2=6_233  Length=10   units=m Linecode=Line_120    
New Line.MVLateral6.234 Bus1=6_233  Bus2=6_234  Length=10   units=m Linecode=Line_120    
New Line.MVLateral6.235 Bus1=6_234  Bus2=6_235  Length=10   units=m Linecode=Line_120    
New Line.MVLateral6.236 Bus1=6_235  Bus2=6_236  Length=10   units=m Linecode=Line_120    
New Line.MVLateral6.237 Bus1=6_236  Bus2=6_237  Length=10   units=m Linecode=Line_120    
New Line.MVLateral6.238 Bus1=6_237  Bus2=6_238  Length=10   units=m Linecode=Line_120    
New Line.MVLateral6.239 Bus1=6_238  Bus2=6_239  Length=10   units=m Linecode=Line_120    
New Line.MVLateral6.240 Bus1=6_239  Bus2=6_240  Length=10   units=m Linecode=Line_120    
New Line.MVLateral6.241 Bus1=6_240  Bus2=6_241  Length=10   units=m Linecode=Line_120    
New Line.MVLateral6.242 Bus1=6_241  Bus2=6_242  Length=10   units=m Linecode=Line_120    
New Line.MVLateral6.243 Bus1=6_242  Bus2=6_243  Length=10   units=m Linecode=Line_120    
New Line.MVLateral6.244 Bus1=6_243  Bus2=6_244  Length=10   units=m Linecode=Line_120    
New Line.MVLateral6.245 Bus1=6_244  Bus2=6_245  Length=10   units=m Linecode=Line_120    
New Line.MVLateral6.246 Bus1=6_245  Bus2=6_246  Length=10   units=m Linecode=Line_120    
New Line.MVLateral6.247 Bus1=6_246  Bus2=6_247  Length=10   units=m Linecode=Line_120    
New Line.MVLateral6.248 Bus1=6_247  Bus2=6_248  Length=10   units=m Linecode=Line_120    
New Line.MVLateral6.249 Bus1=6_248  Bus2=6_249  Length=10   units=m Linecode=Line_120    
New Line.MVLateral6.250 Bus1=6_249  Bus2=6_250  Length=10   units=m Linecode=Line_120    
New Line.MVLateral6.251 Bus1=6_250  Bus2=6_251  Length=10   units=m Linecode=Line_120    
New Line.MVLateral6.252 Bus1=6_251  Bus2=6_252  Length=10   units=m Linecode=Line_120    
New Line.MVLateral6.253 Bus1=6_252  Bus2=6_253  Length=10   units=m Linecode=Line_120    
New Line.MVLateral6.254 Bus1=6_253  Bus2=6_254  Length=10   units=m Linecode=Line_120    
New Line.MVLateral6.255 Bus1=6_254  Bus2=6_255  Length=10   units=m Linecode=Line_120    
New Line.MVLateral6.256 Bus1=6_255  Bus2=6_256  Length=10   units=m Linecode=Line_120    
New Line.MVLateral6.257 Bus1=6_256  Bus2=6_257  Length=10   units=m Linecode=Line_120    
New Line.MVLateral6.258 Bus1=6_257  Bus2=6_258  Length=10   units=m Linecode=Line_120    
New Line.MVLateral6.259 Bus1=6_258  Bus2=6_259  Length=10   units=m Linecode=Line_120    
New Line.MVLateral6.260 Bus1=6_259  Bus2=6_260  Length=10   units=m Linecode=Line_120    
New Line.MVLateral6.261 Bus1=6_260  Bus2=6_261  Length=10   units=m Linecode=Line_120    
New Line.MVLateral6.262 Bus1=6_261  Bus2=6_262  Length=10   units=m Linecode=Line_120    
New Line.MVLateral6.263 Bus1=6_262  Bus2=6_263  Length=10   units=m Linecode=Line_120    
New Line.MVLateral6.264 Bus1=6_263  Bus2=6_264  Length=10   units=m Linecode=Line_120    
New Line.MVLateral6.265 Bus1=6_264  Bus2=6_265  Length=10   units=m Linecode=Line_120    
New Line.MVLateral6.266 Bus1=6_265  Bus2=6_266  Length=10   units=m Linecode=Line_120    
New Line.MVLateral6.267 Bus1=6_266  Bus2=6_267  Length=10   units=m Linecode=Line_120    
New Line.MVLateral6.268 Bus1=6_267  Bus2=6_268  Length=10   units=m Linecode=Line_120    
New Line.MVLateral6.269 Bus1=6_268  Bus2=6_269  Length=10   units=m Linecode=Line_120    
New Line.MVLateral6.270 Bus1=6_269  Bus2=6_270  Length=10   units=m Linecode=Line_120    
New Line.MVLateral6.271 Bus1=6_270  Bus2=6_271  Length=10   units=m Linecode=Line_120    
New Line.MVLateral6.272 Bus1=6_271  Bus2=6_272  Length=10   units=m Linecode=Line_120    
New Line.MVLateral6.273 Bus1=6_272  Bus2=6_273  Length=10   units=m Linecode=Line_120    
New Line.MVLateral6.274 Bus1=6_273  Bus2=6_274  Length=10   units=m Linecode=Line_120    
New Line.MVLateral6.275 Bus1=6_274  Bus2=6_275  Length=10   units=m Linecode=Line_120    
New Line.MVLateral6.276 Bus1=6_275  Bus2=6_276  Length=10   units=m Linecode=Line_120    
New Line.MVLateral6.277 Bus1=6_276  Bus2=6_277  Length=10   units=m Linecode=Line_120    
New Line.MVLateral6.278 Bus1=6_277  Bus2=6_278  Length=10   units=m Linecode=Line_120    
New Line.MVLateral6.279 Bus1=6_278  Bus2=6_279  Length=10   units=m Linecode=Line_120    
New Line.MVLateral6.280 Bus1=6_279  Bus2=6_280  Length=10   units=m Linecode=Line_120    
New Line.MVLateral6.281 Bus1=6_280  Bus2=6_281  Length=10   units=m Linecode=Line_120    
New Line.MVLateral6.282 Bus1=6_281  Bus2=6_282  Length=10   units=m Linecode=Line_120    
New Line.MVLateral6.283 Bus1=6_282  Bus2=6_283  Length=10   units=m Linecode=Line_120    
New Line.MVLateral6.284 Bus1=6_283  Bus2=6_284  Length=10   units=m Linecode=Line_120    
New Line.MVLateral6.285 Bus1=6_284  Bus2=6_285  Length=10   units=m Linecode=Line_120    
New Line.MVLateral6.286 Bus1=6_285  Bus2=6_286  Length=10   units=m Linecode=Line_120    
New Line.MVLateral6.287 Bus1=6_286  Bus2=6_287  Length=10   units=m Linecode=Line_120    
New Line.MVLateral6.288 Bus1=6_287  Bus2=6_288  Length=10   units=m Linecode=Line_120    
New Line.MVLateral6.289 Bus1=6_288  Bus2=6_289  Length=10   units=m Linecode=Line_120    
New Line.MVLateral6.290 Bus1=6_289  Bus2=6_290  Length=10   units=m Linecode=Line_120    
New Line.MVLateral6.291 Bus1=6_290  Bus2=6_291  Length=10   units=m Linecode=Line_120    
New Line.MVLateral6.292 Bus1=6_291  Bus2=6_292  Length=10   units=m Linecode=Line_120    
New Line.MVLateral6.293 Bus1=6_292  Bus2=6_293  Length=10   units=m Linecode=Line_120    
New Line.MVLateral6.294 Bus1=6_293  Bus2=6_294  Length=10   units=m Linecode=Line_120    
New Line.MVLateral6.295 Bus1=6_294  Bus2=6_295  Length=10   units=m Linecode=Line_120    
New Line.MVLateral6.296 Bus1=6_295  Bus2=6_296  Length=10   units=m Linecode=Line_120    
New Line.MVLateral6.297 Bus1=6_296  Bus2=6_297  Length=10   units=m Linecode=Line_120    
New Line.MVLateral6.298 Bus1=6_297  Bus2=6_298  Length=10   units=m Linecode=Line_120    
New Line.MVLateral6.299 Bus1=6_298  Bus2=6_299  Length=10   units=m Linecode=Line_120    
New Line.MVLateral6.300 Bus1=6_299  Bus2=6_300  Length=10   units=m Linecode=Line_120    
New Line.MVLateral6.301 Bus1=6_300  Bus2=6_301  Length=10   units=m Linecode=Line_120    
New Line.MVLateral6.302 Bus1=6_301  Bus2=6_302  Length=10   units=m Linecode=Line_120    
New Line.MVLateral6.303 Bus1=6_302  Bus2=6_303  Length=10   units=m Linecode=Line_120    
New Line.MVLateral6_end_2   Bus1=6_303  Bus2=6_304  Length=10   units=m Linecode=Line_120    
                            
New Line.MVFeeder6.305  Bus1=6_183  Bus2=6_305  Length=10   units=m Linecode=Line_240   
New Line.MVFeeder6.306  Bus1=6_305  Bus2=6_306  Length=10   units=m Linecode=Line_240   
New Line.MVFeeder6.307  Bus1=6_306  Bus2=6_307  Length=10   units=m Linecode=Line_240   
New Line.MVFeeder6.308  Bus1=6_307  Bus2=6_308  Length=10   units=m Linecode=Line_240   
New Line.MVFeeder6.309  Bus1=6_308  Bus2=6_309  Length=10   units=m Linecode=Line_240   
New Line.MVFeeder6.310  Bus1=6_309  Bus2=6_310  Length=10   units=m Linecode=Line_240   
New Line.MVFeeder6.311  Bus1=6_310  Bus2=6_311  Length=10   units=m Linecode=Line_240   
New Line.MVFeeder6.312  Bus1=6_311  Bus2=6_312  Length=10   units=m Linecode=Line_240   
New Line.MVFeeder6.313  Bus1=6_312  Bus2=6_313  Length=10   units=m Linecode=Line_240   
New Line.MVFeeder6.314  Bus1=6_313  Bus2=6_314  Length=10   units=m Linecode=Line_240   
New Line.MVFeeder6.315  Bus1=6_314  Bus2=6_315  Length=10   units=m Linecode=Line_240   
New Line.MVFeeder6.316  Bus1=6_315  Bus2=6_316  Length=10   units=m Linecode=Line_240   
New Line.MVFeeder6.317  Bus1=6_316  Bus2=6_317  Length=10   units=m Linecode=Line_240   
New Line.MVFeeder6.318  Bus1=6_317  Bus2=6_318  Length=10   units=m Linecode=Line_240   
New Line.MVFeeder6.319  Bus1=6_318  Bus2=6_319  Length=10   units=m Linecode=Line_240   
New Line.MVFeeder6.320  Bus1=6_319  Bus2=6_320  Length=10   units=m Linecode=Line_240   
New Line.MVFeeder6.321  Bus1=6_320  Bus2=6_321  Length=10   units=m Linecode=Line_240   
New Line.MVFeeder6.322  Bus1=6_321  Bus2=6_322  Length=10   units=m Linecode=Line_240   
New Line.MVFeeder6.323  Bus1=6_322  Bus2=6_323  Length=10   units=m Linecode=Line_240   
New Line.MVFeeder6.324  Bus1=6_323  Bus2=6_324  Length=10   units=m Linecode=Line_240   
New Line.MVFeeder6.325  Bus1=6_324  Bus2=6_325  Length=10   units=m Linecode=Line_240   
New Line.MVFeeder6.326  Bus1=6_325  Bus2=6_326  Length=10   units=m Linecode=Line_240   
New Line.MVFeeder6.327  Bus1=6_326  Bus2=6_327  Length=10   units=m Linecode=Line_240   
New Line.MVFeeder6.328  Bus1=6_327  Bus2=6_328  Length=10   units=m Linecode=Line_240   
New Line.MVFeeder6.329  Bus1=6_328  Bus2=6_329  Length=10   units=m Linecode=Line_240   
New Line.MVFeeder6.330  Bus1=6_329  Bus2=6_330  Length=10   units=m Linecode=Line_240   
New Line.MVFeeder6.331  Bus1=6_330  Bus2=6_331  Length=10   units=m Linecode=Line_240   
New Line.MVFeeder6.332  Bus1=6_331  Bus2=6_332  Length=10   units=m Linecode=Line_240   
New Line.MVFeeder6.333  Bus1=6_332  Bus2=6_333  Length=10   units=m Linecode=Line_240   
New Line.MVFeeder6.334  Bus1=6_333  Bus2=6_334  Length=10   units=m Linecode=Line_240   
New Line.MVFeeder6.335  Bus1=6_334  Bus2=6_335  Length=10   units=m Linecode=Line_240   
New Line.MVFeeder6.336  Bus1=6_335  Bus2=6_336  Length=10   units=m Linecode=Line_240   
New Line.MVFeeder6.337  Bus1=6_336  Bus2=6_337  Length=10   units=m Linecode=Line_240   
New Line.MVFeeder6.338  Bus1=6_337  Bus2=6_338  Length=10   units=m Linecode=Line_240   
New Line.MVFeeder6.339  Bus1=6_338  Bus2=6_339  Length=10   units=m Linecode=Line_240   
New Line.MVFeeder6.340  Bus1=6_339  Bus2=6_340  Length=10   units=m Linecode=Line_240   
New Line.MVFeeder6.341  Bus1=6_340  Bus2=6_341  Length=10   units=m Linecode=Line_240   