New Line.MVFeeder8.1    Bus1=Main_Busbar    Bus2=8_1    Length=10   units=m Linecode=Line_240   
New Line.MVFeeder8.2    Bus1=8_1    Bus2=8_2    Length=10   units=m Linecode=Line_240   
New Line.MVFeeder8.3    Bus1=8_2    Bus2=8_3    Length=10   units=m Linecode=Line_240   
New Line.MVFeeder8.4    Bus1=8_3    Bus2=8_4    Length=10   units=m Linecode=Line_240   
New Line.MVFeeder8.5    Bus1=8_4    Bus2=8_5    Length=10   units=m Linecode=Line_240   
New Line.MVFeeder8.6    Bus1=8_5    Bus2=8_6    Length=10   units=m Linecode=Line_240   
New Line.MVFeeder8.7    Bus1=8_6    Bus2=8_7    Length=10   units=m Linecode=Line_240   
New Line.MVFeeder8.8    Bus1=8_7    Bus2=8_8    Length=10   units=m Linecode=Line_240   
New Line.MVFeeder8.9    Bus1=8_8    Bus2=8_9    Length=10   units=m Linecode=Line_240   
New Line.MVFeeder8.10   Bus1=8_9    Bus2=8_10   Length=10   units=m Linecode=Line_240   
New Line.MVFeeder8.11   Bus1=8_10   Bus2=8_11   Length=10   units=m Linecode=Line_240   
New Line.MVFeeder8.12   Bus1=8_11   Bus2=8_12   Length=10   units=m Linecode=Line_240   
New Line.MVFeeder8.13   Bus1=8_12   Bus2=8_13   Length=10   units=m Linecode=Line_240   
New Line.MVFeeder8.14   Bus1=8_13   Bus2=8_14   Length=10   units=m Linecode=Line_240   
New Line.MVFeeder8.15   Bus1=8_14   Bus2=8_15   Length=10   units=m Linecode=Line_240   
New Line.MVFeeder8.16   Bus1=8_15   Bus2=8_16   Length=10   units=m Linecode=Line_240   
New Line.MVFeeder8.17   Bus1=8_16   Bus2=8_17   Length=10   units=m Linecode=Line_240   
New Line.MVFeeder8.18   Bus1=8_17   Bus2=8_18   Length=10   units=m Linecode=Line_240   
New Line.MVFeeder8.19   Bus1=8_18   Bus2=8_19   Length=10   units=m Linecode=Line_240   
New Line.MVFeeder8.20   Bus1=8_19   Bus2=8_20   Length=10   units=m Linecode=Line_240   
New Line.MVFeeder8.21   Bus1=8_20   Bus2=8_21   Length=10   units=m Linecode=Line_240   
                            
                            
New Line.MVLateral8_start_1 Bus1=8_20   Bus2=8_22   Length=10   units=m Linecode=Line_120    
New Line.MVLateral8.23  Bus1=8_22   Bus2=8_23   Length=10   units=m Linecode=Line_120    
New Line.MVLateral8.24  Bus1=8_23   Bus2=8_24   Length=10   units=m Linecode=Line_120    
New Line.MVLateral8.25  Bus1=8_24   Bus2=8_25   Length=10   units=m Linecode=Line_120    
New Line.MVLateral8.26  Bus1=8_25   Bus2=8_26   Length=10   units=m Linecode=Line_120    
New Line.MVLateral8.27  Bus1=8_26   Bus2=8_27   Length=10   units=m Linecode=Line_120    
New Line.MVLateral8.28  Bus1=8_27   Bus2=8_28   Length=10   units=m Linecode=Line_120    
New Line.MVLateral8.29  Bus1=8_28   Bus2=8_29   Length=10   units=m Linecode=Line_120    
New Line.MVLateral8.30  Bus1=8_29   Bus2=8_30   Length=10   units=m Linecode=Line_120    
New Line.MVLateral8.31  Bus1=8_30   Bus2=8_31   Length=10   units=m Linecode=Line_120    
New Line.MVLateral8.32  Bus1=8_31   Bus2=8_32   Length=10   units=m Linecode=Line_120    
New Line.MVLateral8.33  Bus1=8_32   Bus2=8_33   Length=10   units=m Linecode=Line_120    
New Line.MVLateral8.34  Bus1=8_33   Bus2=8_34   Length=10   units=m Linecode=Line_120    
New Line.MVLateral8.35  Bus1=8_34   Bus2=8_35   Length=10   units=m Linecode=Line_120    
New Line.MVLateral8.36  Bus1=8_35   Bus2=8_36   Length=10   units=m Linecode=Line_120    
New Line.MVLateral8.37  Bus1=8_36   Bus2=8_37   Length=10   units=m Linecode=Line_120    
New Line.MVLateral8.38  Bus1=8_37   Bus2=8_38   Length=10   units=m Linecode=Line_120    
New Line.MVLateral8.39  Bus1=8_38   Bus2=8_39   Length=10   units=m Linecode=Line_120    
New Line.MVLateral8.40  Bus1=8_39   Bus2=8_40   Length=10   units=m Linecode=Line_120    
New Line.MVLateral8.41  Bus1=8_40   Bus2=8_41   Length=10   units=m Linecode=Line_120    
New Line.MVLateral8.42  Bus1=8_41   Bus2=8_42   Length=10   units=m Linecode=Line_120    
New Line.MVLateral8.43  Bus1=8_42   Bus2=8_43   Length=10   units=m Linecode=Line_120    
New Line.MVLateral8.44  Bus1=8_43   Bus2=8_44   Length=10   units=m Linecode=Line_120    
New Line.MVLateral8.45  Bus1=8_44   Bus2=8_45   Length=10   units=m Linecode=Line_120    
New Line.MVLateral8.46  Bus1=8_45   Bus2=8_46   Length=10   units=m Linecode=Line_120    
New Line.MVLateral8.47  Bus1=8_46   Bus2=8_47   Length=10   units=m Linecode=Line_120    
New Line.MVLateral8.48  Bus1=8_47   Bus2=8_48   Length=10   units=m Linecode=Line_120    
New Line.MVLateral8.49  Bus1=8_48   Bus2=8_49   Length=10   units=m Linecode=Line_120    
New Line.MVLateral8.50  Bus1=8_49   Bus2=8_50   Length=10   units=m Linecode=Line_120    
New Line.MVLateral8.51  Bus1=8_50   Bus2=8_51   Length=10   units=m Linecode=Line_120    
New Line.MVLateral8.52  Bus1=8_51   Bus2=8_52   Length=10   units=m Linecode=Line_120    
New Line.MVLateral8.53  Bus1=8_52   Bus2=8_53   Length=10   units=m Linecode=Line_120    
New Line.MVLateral8.54  Bus1=8_53   Bus2=8_54   Length=10   units=m Linecode=Line_120    
New Line.MVLateral8.55  Bus1=8_54   Bus2=8_55   Length=10   units=m Linecode=Line_120    
New Line.MVLateral8.56  Bus1=8_55   Bus2=8_56   Length=10   units=m Linecode=Line_120    
New Line.MVLateral8.57  Bus1=8_56   Bus2=8_57   Length=10   units=m Linecode=Line_120    
New Line.MVLateral8.58  Bus1=8_57   Bus2=8_58   Length=10   units=m Linecode=Line_120    
New Line.MVLateral8.59  Bus1=8_58   Bus2=8_59   Length=10   units=m Linecode=Line_120    
New Line.MVLateral8.60  Bus1=8_59   Bus2=8_60   Length=10   units=m Linecode=Line_120    
New Line.MVLateral8.61  Bus1=8_60   Bus2=8_61   Length=10   units=m Linecode=Line_120    
New Line.MVLateral8.62  Bus1=8_61   Bus2=8_62   Length=10   units=m Linecode=Line_120    
New Line.MVLateral8.63  Bus1=8_62   Bus2=8_63   Length=10   units=m Linecode=Line_120    
New Line.MVLateral8.64  Bus1=8_63   Bus2=8_64   Length=10   units=m Linecode=Line_120    
New Line.MVLateral8.65  Bus1=8_64   Bus2=8_65   Length=10   units=m Linecode=Line_120    
New Line.MVLateral8.66  Bus1=8_65   Bus2=8_66   Length=10   units=m Linecode=Line_120    
New Line.MVLateral8.67  Bus1=8_66   Bus2=8_67   Length=10   units=m Linecode=Line_120    
New Line.MVLateral8.68  Bus1=8_67   Bus2=8_68   Length=10   units=m Linecode=Line_120    
New Line.MVLateral8.69  Bus1=8_68   Bus2=8_69   Length=10   units=m Linecode=Line_120    
New Line.MVLateral8.70  Bus1=8_69   Bus2=8_70   Length=10   units=m Linecode=Line_120    
New Line.MVLateral8.71  Bus1=8_70   Bus2=8_71   Length=10   units=m Linecode=Line_120    
New Line.MVLateral8.72  Bus1=8_71   Bus2=8_72   Length=10   units=m Linecode=Line_120    
New Line.MVLateral8.73  Bus1=8_72   Bus2=8_73   Length=10   units=m Linecode=Line_120    
New Line.MVLateral8.74  Bus1=8_73   Bus2=8_74   Length=10   units=m Linecode=Line_120    
New Line.MVLateral8.75  Bus1=8_74   Bus2=8_75   Length=10   units=m Linecode=Line_120    
                            
New Line.MVLateral8.86  Bus1=8_85   Bus2=8_86   Length=10   units=m Linecode=Line_120    
New Line.MVLateral8.87  Bus1=8_86   Bus2=8_87   Length=10   units=m Linecode=Line_120    
New Line.MVLateral8.88  Bus1=8_87   Bus2=8_88   Length=10   units=m Linecode=Line_120    
New Line.MVLateral8.89  Bus1=8_88   Bus2=8_89   Length=10   units=m Linecode=Line_120    
New Line.MVLateral8.90  Bus1=8_89   Bus2=8_90   Length=10   units=m Linecode=Line_120    
New Line.MVLateral8.91  Bus1=8_90   Bus2=8_91   Length=10   units=m Linecode=Line_120    
New Line.MVLateral8.92  Bus1=8_91   Bus2=8_92   Length=10   units=m Linecode=Line_120    
New Line.MVLateral8.93  Bus1=8_92   Bus2=8_93   Length=10   units=m Linecode=Line_120    
New Line.MVLateral8.94  Bus1=8_93   Bus2=8_94   Length=10   units=m Linecode=Line_120    
New Line.MVLateral8.95  Bus1=8_94   Bus2=8_95   Length=10   units=m Linecode=Line_120    
New Line.MVLateral8.96  Bus1=8_95   Bus2=8_96   Length=10   units=m Linecode=Line_120    
New Line.MVLateral8.97  Bus1=8_96   Bus2=8_97   Length=10   units=m Linecode=Line_120    
New Line.MVLateral8.98  Bus1=8_97   Bus2=8_98   Length=10   units=m Linecode=Line_120    
New Line.MVLateral8.99  Bus1=8_98   Bus2=8_99   Length=10   units=m Linecode=Line_120    
New Line.MVLateral8.100 Bus1=8_99   Bus2=8_100  Length=10   units=m Linecode=Line_120    
New Line.MVLateral8.101 Bus1=8_100  Bus2=8_101  Length=10   units=m Linecode=Line_120    
New Line.MVLateral8.102 Bus1=8_101  Bus2=8_102  Length=10   units=m Linecode=Line_120    
New Line.MVLateral8.103 Bus1=8_102  Bus2=8_103  Length=10   units=m Linecode=Line_120    
New Line.MVLateral8.104 Bus1=8_103  Bus2=8_104  Length=10   units=m Linecode=Line_120    
New Line.MVLateral8.105 Bus1=8_104  Bus2=8_105  Length=10   units=m Linecode=Line_120    
New Line.MVLateral8.106 Bus1=8_105  Bus2=8_106  Length=10   units=m Linecode=Line_120    
New Line.MVLateral8.107 Bus1=8_106  Bus2=8_107  Length=10   units=m Linecode=Line_120    
New Line.MVLateral8.108 Bus1=8_107  Bus2=8_108  Length=10   units=m Linecode=Line_120    
New Line.MVLateral8.109 Bus1=8_108  Bus2=8_109  Length=10   units=m Linecode=Line_120    
New Line.MVLateral8.110 Bus1=8_109  Bus2=8_110  Length=10   units=m Linecode=Line_120    
New Line.MVLateral8.111 Bus1=8_110  Bus2=8_111  Length=10   units=m Linecode=Line_120    
New Line.MVLateral8.112 Bus1=8_111  Bus2=8_112  Length=10   units=m Linecode=Line_120    
New Line.MVLateral8.113 Bus1=8_112  Bus2=8_113  Length=10   units=m Linecode=Line_120    
New Line.MVLateral8.114 Bus1=8_113  Bus2=8_114  Length=10   units=m Linecode=Line_120    
New Line.MVLateral8.115 Bus1=8_114  Bus2=8_115  Length=10   units=m Linecode=Line_120    
New Line.MVLateral8.116 Bus1=8_115  Bus2=8_116  Length=10   units=m Linecode=Line_120    
New Line.MVLateral8.117 Bus1=8_116  Bus2=8_117  Length=10   units=m Linecode=Line_120    
New Line.MVLateral8.118 Bus1=8_117  Bus2=8_118  Length=10   units=m Linecode=Line_120    
New Line.MVLateral8.119 Bus1=8_118  Bus2=8_119  Length=10   units=m Linecode=Line_120    
New Line.MVLateral8.120 Bus1=8_119  Bus2=8_120  Length=10   units=m Linecode=Line_120    
New Line.MVLateral8.121 Bus1=8_120  Bus2=8_121  Length=10   units=m Linecode=Line_120    
New Line.MVLateral8.122 Bus1=8_121  Bus2=8_122  Length=10   units=m Linecode=Line_120    
                            
New Line.MVLateral8.123 Bus1=8_122  Bus2=8_123  Length=10   units=m Linecode=Line_120    
New Line.MVLateral8.124 Bus1=8_123  Bus2=8_124  Length=10   units=m Linecode=Line_120    
New Line.MVLateral8.125 Bus1=8_124  Bus2=8_125  Length=10   units=m Linecode=Line_120    
New Line.MVLateral8.126 Bus1=8_125  Bus2=8_126  Length=10   units=m Linecode=Line_120    
New Line.MVLateral8.127 Bus1=8_126  Bus2=8_127  Length=10   units=m Linecode=Line_120    
New Line.MVLateral8.128 Bus1=8_127  Bus2=8_128  Length=10   units=m Linecode=Line_120    
New Line.MVLateral8.129 Bus1=8_128  Bus2=8_129  Length=10   units=m Linecode=Line_120    
New Line.MVLateral8.130 Bus1=8_129  Bus2=8_130  Length=10   units=m Linecode=Line_120    
                            
New Line.MVLateral8.131 Bus1=8_130  Bus2=8_131  Length=10   units=m Linecode=Line_120    
New Line.MVLateral8.132 Bus1=8_131  Bus2=8_132  Length=10   units=m Linecode=Line_120    
New Line.MVLateral8.133 Bus1=8_132  Bus2=8_133  Length=10   units=m Linecode=Line_120    
New Line.MVLateral8.134 Bus1=8_133  Bus2=8_134  Length=10   units=m Linecode=Line_120    
New Line.MVLateral8.135 Bus1=8_134  Bus2=8_135  Length=10   units=m Linecode=Line_120    
New Line.MVLateral8.136 Bus1=8_135  Bus2=8_136  Length=10   units=m Linecode=Line_120    
New Line.MVLateral8.137 Bus1=8_136  Bus2=8_137  Length=10   units=m Linecode=Line_120    
New Line.MVLateral8.138 Bus1=8_137  Bus2=8_138  Length=10   units=m Linecode=Line_120    
New Line.MVLateral8.139 Bus1=8_138  Bus2=8_139  Length=10   units=m Linecode=Line_120    
New Line.MVLateral8.140 Bus1=8_139  Bus2=8_140  Length=10   units=m Linecode=Line_120    
New Line.MVLateral8.141 Bus1=8_140  Bus2=8_141  Length=10   units=m Linecode=Line_120    
New Line.MVLateral8_end_1   Bus1=8_141  Bus2=8_142  Length=10   units=m Linecode=Line_120    
                            
New Line.MVFeeder8.143  Bus1=8_21   Bus2=8_143  Length=10   units=m Linecode=Line_240   
New Line.MVFeeder8.144  Bus1=8_143  Bus2=8_144  Length=10   units=m Linecode=Line_240   
New Line.MVFeeder8.145  Bus1=8_144  Bus2=8_145  Length=10   units=m Linecode=Line_240   
New Line.MVFeeder8.146  Bus1=8_145  Bus2=8_146  Length=10   units=m Linecode=Line_240   
New Line.MVFeeder8.147  Bus1=8_146  Bus2=8_147  Length=10   units=m Linecode=Line_240   
New Line.MVFeeder8.148  Bus1=8_147  Bus2=8_148  Length=10   units=m Linecode=Line_240   
New Line.MVFeeder8.149  Bus1=8_148  Bus2=8_149  Length=10   units=m Linecode=Line_240   
New Line.MVFeeder8.150  Bus1=8_149  Bus2=8_150  Length=10   units=m Linecode=Line_240   
New Line.MVFeeder8.151  Bus1=8_150  Bus2=8_151  Length=10   units=m Linecode=Line_240   
New Line.MVFeeder8.152  Bus1=8_151  Bus2=8_152  Length=10   units=m Linecode=Line_240   
New Line.MVFeeder8.153  Bus1=8_152  Bus2=8_153  Length=10   units=m Linecode=Line_240   
New Line.MVFeeder8.154  Bus1=8_153  Bus2=8_154  Length=10   units=m Linecode=Line_240   
New Line.MVFeeder8.155  Bus1=8_154  Bus2=8_155  Length=10   units=m Linecode=Line_240   
New Line.MVFeeder8.156  Bus1=8_155  Bus2=8_156  Length=10   units=m Linecode=Line_240   
New Line.MVFeeder8.157  Bus1=8_156  Bus2=8_157  Length=10   units=m Linecode=Line_240   
New Line.MVFeeder8.158  Bus1=8_157  Bus2=8_158  Length=10   units=m Linecode=Line_240   
New Line.MVFeeder8.159  Bus1=8_158  Bus2=8_159  Length=10   units=m Linecode=Line_240   
New Line.MVFeeder8.160  Bus1=8_159  Bus2=8_160  Length=10   units=m Linecode=Line_240   
New Line.MVFeeder8.161  Bus1=8_160  Bus2=8_161  Length=10   units=m Linecode=Line_240   
New Line.MVFeeder8.162  Bus1=8_161  Bus2=8_162  Length=10   units=m Linecode=Line_240   
New Line.MVFeeder8.163  Bus1=8_162  Bus2=8_163  Length=10   units=m Linecode=Line_240   
New Line.MVFeeder8.164  Bus1=8_163  Bus2=8_164  Length=10   units=m Linecode=Line_240   
New Line.MVFeeder8.165  Bus1=8_164  Bus2=8_165  Length=10   units=m Linecode=Line_240   
New Line.MVFeeder8.166  Bus1=8_165  Bus2=8_166  Length=10   units=m Linecode=Line_240   
New Line.MVFeeder8.167  Bus1=8_166  Bus2=8_167  Length=10   units=m Linecode=Line_240   
New Line.MVFeeder8.168  Bus1=8_167  Bus2=8_168  Length=10   units=m Linecode=Line_240   
New Line.MVFeeder8.169  Bus1=8_168  Bus2=8_169  Length=10   units=m Linecode=Line_240   
New Line.MVFeeder8.170  Bus1=8_169  Bus2=8_170  Length=10   units=m Linecode=Line_240   
New Line.MVFeeder8.171  Bus1=8_170  Bus2=8_171  Length=10   units=m Linecode=Line_240   
New Line.MVFeeder8.172  Bus1=8_171  Bus2=8_172  Length=10   units=m Linecode=Line_240   
New Line.MVFeeder8.173  Bus1=8_172  Bus2=8_173  Length=10   units=m Linecode=Line_240   
New Line.MVFeeder8.174  Bus1=8_173  Bus2=8_174  Length=10   units=m Linecode=Line_240   
New Line.MVFeeder8.175  Bus1=8_174  Bus2=8_175  Length=10   units=m Linecode=Line_240   
New Line.MVFeeder8.176  Bus1=8_175  Bus2=8_176  Length=10   units=m Linecode=Line_240   
New Line.MVFeeder8.177  Bus1=8_176  Bus2=8_177  Length=10   units=m Linecode=Line_240   
New Line.MVFeeder8.178  Bus1=8_177  Bus2=8_178  Length=10   units=m Linecode=Line_240   
New Line.MVFeeder8.179  Bus1=8_178  Bus2=8_179  Length=10   units=m Linecode=Line_240   
New Line.MVFeeder8.180  Bus1=8_179  Bus2=8_180  Length=10   units=m Linecode=Line_240   
New Line.MVFeeder8.181  Bus1=8_180  Bus2=8_181  Length=10   units=m Linecode=Line_240   
New Line.MVFeeder8.182  Bus1=8_181  Bus2=8_182  Length=10   units=m Linecode=Line_240   
New Line.MVFeeder8.183  Bus1=8_182  Bus2=8_183  Length=10   units=m Linecode=Line_240   
                            
New Line.MVLateral8_start_2 Bus1=8_182  Bus2=8_184  Length=10   units=m Linecode=Line_120    
New Line.MVLateral8.185 Bus1=8_184  Bus2=8_185  Length=10   units=m Linecode=Line_120    
New Line.MVLateral8.186 Bus1=8_185  Bus2=8_186  Length=10   units=m Linecode=Line_120    
New Line.MVLateral8.187 Bus1=8_186  Bus2=8_187  Length=10   units=m Linecode=Line_120    
New Line.MVLateral8.188 Bus1=8_187  Bus2=8_188  Length=10   units=m Linecode=Line_120    
New Line.MVLateral8.189 Bus1=8_188  Bus2=8_189  Length=10   units=m Linecode=Line_120    
New Line.MVLateral8.190 Bus1=8_189  Bus2=8_190  Length=10   units=m Linecode=Line_120    
New Line.MVLateral8.191 Bus1=8_190  Bus2=8_191  Length=10   units=m Linecode=Line_120    
New Line.MVLateral8.192 Bus1=8_191  Bus2=8_192  Length=10   units=m Linecode=Line_120    
New Line.MVLateral8.193 Bus1=8_192  Bus2=8_193  Length=10   units=m Linecode=Line_120    
New Line.MVLateral8.194 Bus1=8_193  Bus2=8_194  Length=10   units=m Linecode=Line_120    
New Line.MVLateral8.195 Bus1=8_194  Bus2=8_195  Length=10   units=m Linecode=Line_120    
New Line.MVLateral8.196 Bus1=8_195  Bus2=8_196  Length=10   units=m Linecode=Line_120    
New Line.MVLateral8.197 Bus1=8_196  Bus2=8_197  Length=10   units=m Linecode=Line_120    
New Line.MVLateral8.198 Bus1=8_197  Bus2=8_198  Length=10   units=m Linecode=Line_120    
New Line.MVLateral8.199 Bus1=8_198  Bus2=8_199  Length=10   units=m Linecode=Line_120    
New Line.MVLateral8.200 Bus1=8_199  Bus2=8_200  Length=10   units=m Linecode=Line_120    
New Line.MVLateral8.201 Bus1=8_200  Bus2=8_201  Length=10   units=m Linecode=Line_120    
New Line.MVLateral8.202 Bus1=8_201  Bus2=8_202  Length=10   units=m Linecode=Line_120    
New Line.MVLateral8.203 Bus1=8_202  Bus2=8_203  Length=10   units=m Linecode=Line_120    
New Line.MVLateral8.204 Bus1=8_203  Bus2=8_204  Length=10   units=m Linecode=Line_120    
New Line.MVLateral8.205 Bus1=8_204  Bus2=8_205  Length=10   units=m Linecode=Line_120    
New Line.MVLateral8.206 Bus1=8_205  Bus2=8_206  Length=10   units=m Linecode=Line_120    
New Line.MVLateral8.207 Bus1=8_206  Bus2=8_207  Length=10   units=m Linecode=Line_120    
New Line.MVLateral8.208 Bus1=8_207  Bus2=8_208  Length=10   units=m Linecode=Line_120    
New Line.MVLateral8.209 Bus1=8_208  Bus2=8_209  Length=10   units=m Linecode=Line_120    
New Line.MVLateral8.210 Bus1=8_209  Bus2=8_210  Length=10   units=m Linecode=Line_120    
New Line.MVLateral8.211 Bus1=8_210  Bus2=8_211  Length=10   units=m Linecode=Line_120    
New Line.MVLateral8.212 Bus1=8_211  Bus2=8_212  Length=10   units=m Linecode=Line_120    
New Line.MVLateral8.213 Bus1=8_212  Bus2=8_213  Length=10   units=m Linecode=Line_120    
New Line.MVLateral8.214 Bus1=8_213  Bus2=8_214  Length=10   units=m Linecode=Line_120    
New Line.MVLateral8.215 Bus1=8_214  Bus2=8_215  Length=10   units=m Linecode=Line_120    
New Line.MVLateral8.216 Bus1=8_215  Bus2=8_216  Length=10   units=m Linecode=Line_120    
New Line.MVLateral8.217 Bus1=8_216  Bus2=8_217  Length=10   units=m Linecode=Line_120    
New Line.MVLateral8.218 Bus1=8_217  Bus2=8_218  Length=10   units=m Linecode=Line_120    
New Line.MVLateral8.219 Bus1=8_218  Bus2=8_219  Length=10   units=m Linecode=Line_120    
New Line.MVLateral8.220 Bus1=8_219  Bus2=8_220  Length=10   units=m Linecode=Line_120    
New Line.MVLateral8.221 Bus1=8_220  Bus2=8_221  Length=10   units=m Linecode=Line_120    
New Line.MVLateral8.222 Bus1=8_221  Bus2=8_222  Length=10   units=m Linecode=Line_120    
New Line.MVLateral8.223 Bus1=8_222  Bus2=8_223  Length=10   units=m Linecode=Line_120    
New Line.MVLateral8.224 Bus1=8_223  Bus2=8_224  Length=10   units=m Linecode=Line_120    
New Line.MVLateral8.225 Bus1=8_224  Bus2=8_225  Length=10   units=m Linecode=Line_120    
New Line.MVLateral8.226 Bus1=8_225  Bus2=8_226  Length=10   units=m Linecode=Line_120    
New Line.MVLateral8.227 Bus1=8_226  Bus2=8_227  Length=10   units=m Linecode=Line_120    
New Line.MVLateral8.228 Bus1=8_227  Bus2=8_228  Length=10   units=m Linecode=Line_120    
New Line.MVLateral8.229 Bus1=8_228  Bus2=8_229  Length=10   units=m Linecode=Line_120    
New Line.MVLateral8.230 Bus1=8_229  Bus2=8_230  Length=10   units=m Linecode=Line_120    
New Line.MVLateral8.231 Bus1=8_230  Bus2=8_231  Length=10   units=m Linecode=Line_120    
New Line.MVLateral8.232 Bus1=8_231  Bus2=8_232  Length=10   units=m Linecode=Line_120    
New Line.MVLateral8.233 Bus1=8_232  Bus2=8_233  Length=10   units=m Linecode=Line_120    
New Line.MVLateral8.234 Bus1=8_233  Bus2=8_234  Length=10   units=m Linecode=Line_120    
New Line.MVLateral8.235 Bus1=8_234  Bus2=8_235  Length=10   units=m Linecode=Line_120    
New Line.MVLateral8.236 Bus1=8_235  Bus2=8_236  Length=10   units=m Linecode=Line_120    
New Line.MVLateral8.237 Bus1=8_236  Bus2=8_237  Length=10   units=m Linecode=Line_120    
New Line.MVLateral8.238 Bus1=8_237  Bus2=8_238  Length=10   units=m Linecode=Line_120    
New Line.MVLateral8.239 Bus1=8_238  Bus2=8_239  Length=10   units=m Linecode=Line_120    
New Line.MVLateral8.240 Bus1=8_239  Bus2=8_240  Length=10   units=m Linecode=Line_120    
New Line.MVLateral8.241 Bus1=8_240  Bus2=8_241  Length=10   units=m Linecode=Line_120    
New Line.MVLateral8.242 Bus1=8_241  Bus2=8_242  Length=10   units=m Linecode=Line_120    
New Line.MVLateral8.243 Bus1=8_242  Bus2=8_243  Length=10   units=m Linecode=Line_120    
New Line.MVLateral8.244 Bus1=8_243  Bus2=8_244  Length=10   units=m Linecode=Line_120    
New Line.MVLateral8.245 Bus1=8_244  Bus2=8_245  Length=10   units=m Linecode=Line_120    
New Line.MVLateral8.246 Bus1=8_245  Bus2=8_246  Length=10   units=m Linecode=Line_120    
New Line.MVLateral8.247 Bus1=8_246  Bus2=8_247  Length=10   units=m Linecode=Line_120    
New Line.MVLateral8.248 Bus1=8_247  Bus2=8_248  Length=10   units=m Linecode=Line_120    
New Line.MVLateral8.249 Bus1=8_248  Bus2=8_249  Length=10   units=m Linecode=Line_120    
New Line.MVLateral8.250 Bus1=8_249  Bus2=8_250  Length=10   units=m Linecode=Line_120    
New Line.MVLateral8.251 Bus1=8_250  Bus2=8_251  Length=10   units=m Linecode=Line_120    
New Line.MVLateral8.252 Bus1=8_251  Bus2=8_252  Length=10   units=m Linecode=Line_120    
New Line.MVLateral8.253 Bus1=8_252  Bus2=8_253  Length=10   units=m Linecode=Line_120    
New Line.MVLateral8.254 Bus1=8_253  Bus2=8_254  Length=10   units=m Linecode=Line_120    
New Line.MVLateral8.255 Bus1=8_254  Bus2=8_255  Length=10   units=m Linecode=Line_120    
New Line.MVLateral8.256 Bus1=8_255  Bus2=8_256  Length=10   units=m Linecode=Line_120    
New Line.MVLateral8.257 Bus1=8_256  Bus2=8_257  Length=10   units=m Linecode=Line_120    
New Line.MVLateral8.258 Bus1=8_257  Bus2=8_258  Length=10   units=m Linecode=Line_120    
New Line.MVLateral8.259 Bus1=8_258  Bus2=8_259  Length=10   units=m Linecode=Line_120    
New Line.MVLateral8.260 Bus1=8_259  Bus2=8_260  Length=10   units=m Linecode=Line_120    
New Line.MVLateral8.261 Bus1=8_260  Bus2=8_261  Length=10   units=m Linecode=Line_120    
New Line.MVLateral8.262 Bus1=8_261  Bus2=8_262  Length=10   units=m Linecode=Line_120    
New Line.MVLateral8.263 Bus1=8_262  Bus2=8_263  Length=10   units=m Linecode=Line_120    
New Line.MVLateral8.264 Bus1=8_263  Bus2=8_264  Length=10   units=m Linecode=Line_120    
New Line.MVLateral8.265 Bus1=8_264  Bus2=8_265  Length=10   units=m Linecode=Line_120    
New Line.MVLateral8.266 Bus1=8_265  Bus2=8_266  Length=10   units=m Linecode=Line_120    
New Line.MVLateral8.267 Bus1=8_266  Bus2=8_267  Length=10   units=m Linecode=Line_120    
New Line.MVLateral8.268 Bus1=8_267  Bus2=8_268  Length=10   units=m Linecode=Line_120    
New Line.MVLateral8.269 Bus1=8_268  Bus2=8_269  Length=10   units=m Linecode=Line_120    
New Line.MVLateral8.270 Bus1=8_269  Bus2=8_270  Length=10   units=m Linecode=Line_120    
New Line.MVLateral8.271 Bus1=8_270  Bus2=8_271  Length=10   units=m Linecode=Line_120    
New Line.MVLateral8.272 Bus1=8_271  Bus2=8_272  Length=10   units=m Linecode=Line_120    
New Line.MVLateral8.273 Bus1=8_272  Bus2=8_273  Length=10   units=m Linecode=Line_120    
New Line.MVLateral8.274 Bus1=8_273  Bus2=8_274  Length=10   units=m Linecode=Line_120    
New Line.MVLateral8.275 Bus1=8_274  Bus2=8_275  Length=10   units=m Linecode=Line_120    
New Line.MVLateral8.276 Bus1=8_275  Bus2=8_276  Length=10   units=m Linecode=Line_120    
New Line.MVLateral8.277 Bus1=8_276  Bus2=8_277  Length=10   units=m Linecode=Line_120    
New Line.MVLateral8.278 Bus1=8_277  Bus2=8_278  Length=10   units=m Linecode=Line_120    
New Line.MVLateral8.279 Bus1=8_278  Bus2=8_279  Length=10   units=m Linecode=Line_120    
New Line.MVLateral8.280 Bus1=8_279  Bus2=8_280  Length=10   units=m Linecode=Line_120    
New Line.MVLateral8.281 Bus1=8_280  Bus2=8_281  Length=10   units=m Linecode=Line_120    
New Line.MVLateral8.282 Bus1=8_281  Bus2=8_282  Length=10   units=m Linecode=Line_120    
New Line.MVLateral8.283 Bus1=8_282  Bus2=8_283  Length=10   units=m Linecode=Line_120    
New Line.MVLateral8.284 Bus1=8_283  Bus2=8_284  Length=10   units=m Linecode=Line_120    
New Line.MVLateral8.285 Bus1=8_284  Bus2=8_285  Length=10   units=m Linecode=Line_120    
New Line.MVLateral8.286 Bus1=8_285  Bus2=8_286  Length=10   units=m Linecode=Line_120    
New Line.MVLateral8.287 Bus1=8_286  Bus2=8_287  Length=10   units=m Linecode=Line_120    
New Line.MVLateral8.288 Bus1=8_287  Bus2=8_288  Length=10   units=m Linecode=Line_120    
New Line.MVLateral8.289 Bus1=8_288  Bus2=8_289  Length=10   units=m Linecode=Line_120    
New Line.MVLateral8.290 Bus1=8_289  Bus2=8_290  Length=10   units=m Linecode=Line_120    
New Line.MVLateral8.291 Bus1=8_290  Bus2=8_291  Length=10   units=m Linecode=Line_120    
New Line.MVLateral8.292 Bus1=8_291  Bus2=8_292  Length=10   units=m Linecode=Line_120    
New Line.MVLateral8.293 Bus1=8_292  Bus2=8_293  Length=10   units=m Linecode=Line_120    
New Line.MVLateral8.294 Bus1=8_293  Bus2=8_294  Length=10   units=m Linecode=Line_120    
New Line.MVLateral8.295 Bus1=8_294  Bus2=8_295  Length=10   units=m Linecode=Line_120    
New Line.MVLateral8.296 Bus1=8_295  Bus2=8_296  Length=10   units=m Linecode=Line_120    
New Line.MVLateral8.297 Bus1=8_296  Bus2=8_297  Length=10   units=m Linecode=Line_120    
New Line.MVLateral8.298 Bus1=8_297  Bus2=8_298  Length=10   units=m Linecode=Line_120    
New Line.MVLateral8.299 Bus1=8_298  Bus2=8_299  Length=10   units=m Linecode=Line_120    
New Line.MVLateral8.300 Bus1=8_299  Bus2=8_300  Length=10   units=m Linecode=Line_120    
New Line.MVLateral8.301 Bus1=8_300  Bus2=8_301  Length=10   units=m Linecode=Line_120    
New Line.MVLateral8.302 Bus1=8_301  Bus2=8_302  Length=10   units=m Linecode=Line_120    
New Line.MVLateral8.303 Bus1=8_302  Bus2=8_303  Length=10   units=m Linecode=Line_120    
New Line.MVLateral8_end_2   Bus1=8_303  Bus2=8_304  Length=10   units=m Linecode=Line_120    
                            
New Line.MVFeeder8.305  Bus1=8_183  Bus2=8_305  Length=10   units=m Linecode=Line_240   
New Line.MVFeeder8.306  Bus1=8_305  Bus2=8_306  Length=10   units=m Linecode=Line_240   
New Line.MVFeeder8.307  Bus1=8_306  Bus2=8_307  Length=10   units=m Linecode=Line_240   
New Line.MVFeeder8.308  Bus1=8_307  Bus2=8_308  Length=10   units=m Linecode=Line_240   
New Line.MVFeeder8.309  Bus1=8_308  Bus2=8_309  Length=10   units=m Linecode=Line_240   
New Line.MVFeeder8.310  Bus1=8_309  Bus2=8_310  Length=10   units=m Linecode=Line_240   
New Line.MVFeeder8.311  Bus1=8_310  Bus2=8_311  Length=10   units=m Linecode=Line_240   
New Line.MVFeeder8.312  Bus1=8_311  Bus2=8_312  Length=10   units=m Linecode=Line_240   
New Line.MVFeeder8.313  Bus1=8_312  Bus2=8_313  Length=10   units=m Linecode=Line_240   
New Line.MVFeeder8.314  Bus1=8_313  Bus2=8_314  Length=10   units=m Linecode=Line_240   
New Line.MVFeeder8.315  Bus1=8_314  Bus2=8_315  Length=10   units=m Linecode=Line_240   
New Line.MVFeeder8.316  Bus1=8_315  Bus2=8_316  Length=10   units=m Linecode=Line_240   
New Line.MVFeeder8.317  Bus1=8_316  Bus2=8_317  Length=10   units=m Linecode=Line_240   
New Line.MVFeeder8.318  Bus1=8_317  Bus2=8_318  Length=10   units=m Linecode=Line_240   
New Line.MVFeeder8.319  Bus1=8_318  Bus2=8_319  Length=10   units=m Linecode=Line_240   
New Line.MVFeeder8.320  Bus1=8_319  Bus2=8_320  Length=10   units=m Linecode=Line_240   
New Line.MVFeeder8.321  Bus1=8_320  Bus2=8_321  Length=10   units=m Linecode=Line_240   
New Line.MVFeeder8.322  Bus1=8_321  Bus2=8_322  Length=10   units=m Linecode=Line_240   
New Line.MVFeeder8.323  Bus1=8_322  Bus2=8_323  Length=10   units=m Linecode=Line_240   
New Line.MVFeeder8.324  Bus1=8_323  Bus2=8_324  Length=10   units=m Linecode=Line_240   
New Line.MVFeeder8.325  Bus1=8_324  Bus2=8_325  Length=10   units=m Linecode=Line_240   
New Line.MVFeeder8.326  Bus1=8_325  Bus2=8_326  Length=10   units=m Linecode=Line_240   
New Line.MVFeeder8.327  Bus1=8_326  Bus2=8_327  Length=10   units=m Linecode=Line_240   
New Line.MVFeeder8.328  Bus1=8_327  Bus2=8_328  Length=10   units=m Linecode=Line_240   
New Line.MVFeeder8.329  Bus1=8_328  Bus2=8_329  Length=10   units=m Linecode=Line_240   
New Line.MVFeeder8.330  Bus1=8_329  Bus2=8_330  Length=10   units=m Linecode=Line_240   
New Line.MVFeeder8.331  Bus1=8_330  Bus2=8_331  Length=10   units=m Linecode=Line_240   
New Line.MVFeeder8.332  Bus1=8_331  Bus2=8_332  Length=10   units=m Linecode=Line_240   
New Line.MVFeeder8.333  Bus1=8_332  Bus2=8_333  Length=10   units=m Linecode=Line_240   
New Line.MVFeeder8.334  Bus1=8_333  Bus2=8_334  Length=10   units=m Linecode=Line_240   
New Line.MVFeeder8.335  Bus1=8_334  Bus2=8_335  Length=10   units=m Linecode=Line_240   
New Line.MVFeeder8.336  Bus1=8_335  Bus2=8_336  Length=10   units=m Linecode=Line_240   
New Line.MVFeeder8.337  Bus1=8_336  Bus2=8_337  Length=10   units=m Linecode=Line_240   
New Line.MVFeeder8.338  Bus1=8_337  Bus2=8_338  Length=10   units=m Linecode=Line_240   
New Line.MVFeeder8.339  Bus1=8_338  Bus2=8_339  Length=10   units=m Linecode=Line_240   
New Line.MVFeeder8.340  Bus1=8_339  Bus2=8_340  Length=10   units=m Linecode=Line_240   
New Line.MVFeeder8.341  Bus1=8_340  Bus2=8_341  Length=10   units=m Linecode=Line_240   