New Line.MVFeeder12.1    Bus1=Main_Busbar    Bus2=12_1    Length=10   units=m Linecode=Line_240   
New Line.MVFeeder12.2    Bus1=12_1    Bus2=12_2    Length=10   units=m Linecode=Line_240   
New Line.MVFeeder12.3    Bus1=12_2    Bus2=12_3    Length=10   units=m Linecode=Line_240   
New Line.MVFeeder12.4    Bus1=12_3    Bus2=12_4    Length=10   units=m Linecode=Line_240   
New Line.MVFeeder12.5    Bus1=12_4    Bus2=12_5    Length=10   units=m Linecode=Line_240   
New Line.MVFeeder12.6    Bus1=12_5    Bus2=12_6    Length=10   units=m Linecode=Line_240   
New Line.MVFeeder12.7    Bus1=12_6    Bus2=12_7    Length=10   units=m Linecode=Line_240   
New Line.MVFeeder12.8    Bus1=12_7    Bus2=12_8    Length=10   units=m Linecode=Line_240   
New Line.MVFeeder12.9    Bus1=12_8    Bus2=12_9    Length=10   units=m Linecode=Line_240   
New Line.MVFeeder12.10   Bus1=12_9    Bus2=12_10   Length=10   units=m Linecode=Line_240   
New Line.MVFeeder12.11   Bus1=12_10   Bus2=12_11   Length=10   units=m Linecode=Line_240   
New Line.MVFeeder12.12   Bus1=12_11   Bus2=12_12   Length=10   units=m Linecode=Line_240   
New Line.MVFeeder12.13   Bus1=12_12   Bus2=12_13   Length=10   units=m Linecode=Line_240   
New Line.MVFeeder12.14   Bus1=12_13   Bus2=12_14   Length=10   units=m Linecode=Line_240   
New Line.MVFeeder12.15   Bus1=12_14   Bus2=12_15   Length=10   units=m Linecode=Line_240   
New Line.MVFeeder12.16   Bus1=12_15   Bus2=12_16   Length=10   units=m Linecode=Line_240   
New Line.MVFeeder12.17   Bus1=12_16   Bus2=12_17   Length=10   units=m Linecode=Line_240   
New Line.MVFeeder12.18   Bus1=12_17   Bus2=12_18   Length=10   units=m Linecode=Line_240   
New Line.MVFeeder12.19   Bus1=12_18   Bus2=12_19   Length=10   units=m Linecode=Line_240   
New Line.MVFeeder12.20   Bus1=12_19   Bus2=12_20   Length=10   units=m Linecode=Line_240   
New Line.MVFeeder12.21   Bus1=12_20   Bus2=12_21   Length=10   units=m Linecode=Line_240   
                            
                            
New Line.MVLateral12_start_1 Bus1=12_20   Bus2=12_22   Length=10   units=m Linecode=Line_120    
New Line.MVLateral12.23  Bus1=12_22   Bus2=12_23   Length=10   units=m Linecode=Line_120    
New Line.MVLateral12.24  Bus1=12_23   Bus2=12_24   Length=10   units=m Linecode=Line_120    
New Line.MVLateral12.25  Bus1=12_24   Bus2=12_25   Length=10   units=m Linecode=Line_120    
New Line.MVLateral12.26  Bus1=12_25   Bus2=12_26   Length=10   units=m Linecode=Line_120    
New Line.MVLateral12.27  Bus1=12_26   Bus2=12_27   Length=10   units=m Linecode=Line_120    
New Line.MVLateral12.28  Bus1=12_27   Bus2=12_28   Length=10   units=m Linecode=Line_120    
New Line.MVLateral12.29  Bus1=12_28   Bus2=12_29   Length=10   units=m Linecode=Line_120    
New Line.MVLateral12.30  Bus1=12_29   Bus2=12_30   Length=10   units=m Linecode=Line_120    
New Line.MVLateral12.31  Bus1=12_30   Bus2=12_31   Length=10   units=m Linecode=Line_120    
New Line.MVLateral12.32  Bus1=12_31   Bus2=12_32   Length=10   units=m Linecode=Line_120    
New Line.MVLateral12.33  Bus1=12_32   Bus2=12_33   Length=10   units=m Linecode=Line_120    
New Line.MVLateral12.34  Bus1=12_33   Bus2=12_34   Length=10   units=m Linecode=Line_120    
New Line.MVLateral12.35  Bus1=12_34   Bus2=12_35   Length=10   units=m Linecode=Line_120    
New Line.MVLateral12.36  Bus1=12_35   Bus2=12_36   Length=10   units=m Linecode=Line_120    
New Line.MVLateral12.37  Bus1=12_36   Bus2=12_37   Length=10   units=m Linecode=Line_120    
New Line.MVLateral12.38  Bus1=12_37   Bus2=12_38   Length=10   units=m Linecode=Line_120    
New Line.MVLateral12.39  Bus1=12_38   Bus2=12_39   Length=10   units=m Linecode=Line_120    
New Line.MVLateral12.40  Bus1=12_39   Bus2=12_40   Length=10   units=m Linecode=Line_120    
New Line.MVLateral12.41  Bus1=12_40   Bus2=12_41   Length=10   units=m Linecode=Line_120    
New Line.MVLateral12.42  Bus1=12_41   Bus2=12_42   Length=10   units=m Linecode=Line_120    
New Line.MVLateral12.43  Bus1=12_42   Bus2=12_43   Length=10   units=m Linecode=Line_120    
New Line.MVLateral12.44  Bus1=12_43   Bus2=12_44   Length=10   units=m Linecode=Line_120    
New Line.MVLateral12.45  Bus1=12_44   Bus2=12_45   Length=10   units=m Linecode=Line_120    
New Line.MVLateral12.46  Bus1=12_45   Bus2=12_46   Length=10   units=m Linecode=Line_120    
New Line.MVLateral12.47  Bus1=12_46   Bus2=12_47   Length=10   units=m Linecode=Line_120    
New Line.MVLateral12.48  Bus1=12_47   Bus2=12_48   Length=10   units=m Linecode=Line_120    
New Line.MVLateral12.49  Bus1=12_48   Bus2=12_49   Length=10   units=m Linecode=Line_120    
New Line.MVLateral12.50  Bus1=12_49   Bus2=12_50   Length=10   units=m Linecode=Line_120    
New Line.MVLateral12.51  Bus1=12_50   Bus2=12_51   Length=10   units=m Linecode=Line_120    
New Line.MVLateral12.52  Bus1=12_51   Bus2=12_52   Length=10   units=m Linecode=Line_120    
New Line.MVLateral12.53  Bus1=12_52   Bus2=12_53   Length=10   units=m Linecode=Line_120    
New Line.MVLateral12.54  Bus1=12_53   Bus2=12_54   Length=10   units=m Linecode=Line_120    
New Line.MVLateral12.55  Bus1=12_54   Bus2=12_55   Length=10   units=m Linecode=Line_120    
New Line.MVLateral12.56  Bus1=12_55   Bus2=12_56   Length=10   units=m Linecode=Line_120    
New Line.MVLateral12.57  Bus1=12_56   Bus2=12_57   Length=10   units=m Linecode=Line_120    
New Line.MVLateral12.58  Bus1=12_57   Bus2=12_58   Length=10   units=m Linecode=Line_120    
New Line.MVLateral12.59  Bus1=12_58   Bus2=12_59   Length=10   units=m Linecode=Line_120    
New Line.MVLateral12.60  Bus1=12_59   Bus2=12_60   Length=10   units=m Linecode=Line_120    
New Line.MVLateral12.61  Bus1=12_60   Bus2=12_61   Length=10   units=m Linecode=Line_120    
New Line.MVLateral12.62  Bus1=12_61   Bus2=12_62   Length=10   units=m Linecode=Line_120    
New Line.MVLateral12.63  Bus1=12_62   Bus2=12_63   Length=10   units=m Linecode=Line_120    
New Line.MVLateral12.64  Bus1=12_63   Bus2=12_64   Length=10   units=m Linecode=Line_120    
New Line.MVLateral12.65  Bus1=12_64   Bus2=12_65   Length=10   units=m Linecode=Line_120    
New Line.MVLateral12.66  Bus1=12_65   Bus2=12_66   Length=10   units=m Linecode=Line_120    
New Line.MVLateral12.67  Bus1=12_66   Bus2=12_67   Length=10   units=m Linecode=Line_120    
New Line.MVLateral12.68  Bus1=12_67   Bus2=12_68   Length=10   units=m Linecode=Line_120    
New Line.MVLateral12.69  Bus1=12_68   Bus2=12_69   Length=10   units=m Linecode=Line_120    
New Line.MVLateral12.70  Bus1=12_69   Bus2=12_70   Length=10   units=m Linecode=Line_120    
New Line.MVLateral12.71  Bus1=12_70   Bus2=12_71   Length=10   units=m Linecode=Line_120    
New Line.MVLateral12.72  Bus1=12_71   Bus2=12_72   Length=10   units=m Linecode=Line_120    
New Line.MVLateral12.73  Bus1=12_72   Bus2=12_73   Length=10   units=m Linecode=Line_120    
New Line.MVLateral12.74  Bus1=12_73   Bus2=12_74   Length=10   units=m Linecode=Line_120    
New Line.MVLateral12.75  Bus1=12_74   Bus2=12_75   Length=10   units=m Linecode=Line_120    
                            
New Line.MVLateral12.86  Bus1=12_85   Bus2=12_86   Length=10   units=m Linecode=Line_120    
New Line.MVLateral12.87  Bus1=12_86   Bus2=12_87   Length=10   units=m Linecode=Line_120    
New Line.MVLateral12.88  Bus1=12_87   Bus2=12_88   Length=10   units=m Linecode=Line_120    
New Line.MVLateral12.89  Bus1=12_88   Bus2=12_89   Length=10   units=m Linecode=Line_120    
New Line.MVLateral12.90  Bus1=12_89   Bus2=12_90   Length=10   units=m Linecode=Line_120    
New Line.MVLateral12.91  Bus1=12_90   Bus2=12_91   Length=10   units=m Linecode=Line_120    
New Line.MVLateral12.92  Bus1=12_91   Bus2=12_92   Length=10   units=m Linecode=Line_120    
New Line.MVLateral12.93  Bus1=12_92   Bus2=12_93   Length=10   units=m Linecode=Line_120    
New Line.MVLateral12.94  Bus1=12_93   Bus2=12_94   Length=10   units=m Linecode=Line_120    
New Line.MVLateral12.95  Bus1=12_94   Bus2=12_95   Length=10   units=m Linecode=Line_120    
New Line.MVLateral12.96  Bus1=12_95   Bus2=12_96   Length=10   units=m Linecode=Line_120    
New Line.MVLateral12.97  Bus1=12_96   Bus2=12_97   Length=10   units=m Linecode=Line_120    
New Line.MVLateral12.98  Bus1=12_97   Bus2=12_98   Length=10   units=m Linecode=Line_120    
New Line.MVLateral12.99  Bus1=12_98   Bus2=12_99   Length=10   units=m Linecode=Line_120    
New Line.MVLateral12.100 Bus1=12_99   Bus2=12_100  Length=10   units=m Linecode=Line_120    
New Line.MVLateral12.101 Bus1=12_100  Bus2=12_101  Length=10   units=m Linecode=Line_120    
New Line.MVLateral12.102 Bus1=12_101  Bus2=12_102  Length=10   units=m Linecode=Line_120    
New Line.MVLateral12.103 Bus1=12_102  Bus2=12_103  Length=10   units=m Linecode=Line_120    
New Line.MVLateral12.104 Bus1=12_103  Bus2=12_104  Length=10   units=m Linecode=Line_120    
New Line.MVLateral12.105 Bus1=12_104  Bus2=12_105  Length=10   units=m Linecode=Line_120    
New Line.MVLateral12.106 Bus1=12_105  Bus2=12_106  Length=10   units=m Linecode=Line_120    
New Line.MVLateral12.107 Bus1=12_106  Bus2=12_107  Length=10   units=m Linecode=Line_120    
New Line.MVLateral12.108 Bus1=12_107  Bus2=12_108  Length=10   units=m Linecode=Line_120    
New Line.MVLateral12.109 Bus1=12_108  Bus2=12_109  Length=10   units=m Linecode=Line_120    
New Line.MVLateral12.110 Bus1=12_109  Bus2=12_110  Length=10   units=m Linecode=Line_120    
New Line.MVLateral12.111 Bus1=12_110  Bus2=12_111  Length=10   units=m Linecode=Line_120    
New Line.MVLateral12.112 Bus1=12_111  Bus2=12_112  Length=10   units=m Linecode=Line_120    
New Line.MVLateral12.113 Bus1=12_112  Bus2=12_113  Length=10   units=m Linecode=Line_120    
New Line.MVLateral12.114 Bus1=12_113  Bus2=12_114  Length=10   units=m Linecode=Line_120    
New Line.MVLateral12.115 Bus1=12_114  Bus2=12_115  Length=10   units=m Linecode=Line_120    
New Line.MVLateral12.116 Bus1=12_115  Bus2=12_116  Length=10   units=m Linecode=Line_120    
New Line.MVLateral12.117 Bus1=12_116  Bus2=12_117  Length=10   units=m Linecode=Line_120    
New Line.MVLateral12.118 Bus1=12_117  Bus2=12_118  Length=10   units=m Linecode=Line_120    
New Line.MVLateral12.119 Bus1=12_118  Bus2=12_119  Length=10   units=m Linecode=Line_120    
New Line.MVLateral12.120 Bus1=12_119  Bus2=12_120  Length=10   units=m Linecode=Line_120    
New Line.MVLateral12.121 Bus1=12_120  Bus2=12_121  Length=10   units=m Linecode=Line_120    
New Line.MVLateral12.122 Bus1=12_121  Bus2=12_122  Length=10   units=m Linecode=Line_120    
                            
New Line.MVLateral12.123 Bus1=12_122  Bus2=12_123  Length=10   units=m Linecode=Line_120    
New Line.MVLateral12.124 Bus1=12_123  Bus2=12_124  Length=10   units=m Linecode=Line_120    
New Line.MVLateral12.125 Bus1=12_124  Bus2=12_125  Length=10   units=m Linecode=Line_120    
New Line.MVLateral12.126 Bus1=12_125  Bus2=12_126  Length=10   units=m Linecode=Line_120    
New Line.MVLateral12.127 Bus1=12_126  Bus2=12_127  Length=10   units=m Linecode=Line_120    
New Line.MVLateral12.128 Bus1=12_127  Bus2=12_128  Length=10   units=m Linecode=Line_120    
New Line.MVLateral12.129 Bus1=12_128  Bus2=12_129  Length=10   units=m Linecode=Line_120    
New Line.MVLateral12.130 Bus1=12_129  Bus2=12_130  Length=10   units=m Linecode=Line_120    
                            
New Line.MVLateral12.131 Bus1=12_130  Bus2=12_131  Length=10   units=m Linecode=Line_120    
New Line.MVLateral12.132 Bus1=12_131  Bus2=12_132  Length=10   units=m Linecode=Line_120    
New Line.MVLateral12.133 Bus1=12_132  Bus2=12_133  Length=10   units=m Linecode=Line_120    
New Line.MVLateral12.134 Bus1=12_133  Bus2=12_134  Length=10   units=m Linecode=Line_120    
New Line.MVLateral12.135 Bus1=12_134  Bus2=12_135  Length=10   units=m Linecode=Line_120    
New Line.MVLateral12.136 Bus1=12_135  Bus2=12_136  Length=10   units=m Linecode=Line_120    
New Line.MVLateral12.137 Bus1=12_136  Bus2=12_137  Length=10   units=m Linecode=Line_120    
New Line.MVLateral12.138 Bus1=12_137  Bus2=12_138  Length=10   units=m Linecode=Line_120    
New Line.MVLateral12.139 Bus1=12_138  Bus2=12_139  Length=10   units=m Linecode=Line_120    
New Line.MVLateral12.140 Bus1=12_139  Bus2=12_140  Length=10   units=m Linecode=Line_120    
New Line.MVLateral12.141 Bus1=12_140  Bus2=12_141  Length=10   units=m Linecode=Line_120    
New Line.MVLateral12_end_1   Bus1=12_141  Bus2=12_142  Length=10   units=m Linecode=Line_120    
                            
New Line.MVFeeder12.143  Bus1=12_21   Bus2=12_143  Length=10   units=m Linecode=Line_240   
New Line.MVFeeder12.144  Bus1=12_143  Bus2=12_144  Length=10   units=m Linecode=Line_240   
New Line.MVFeeder12.145  Bus1=12_144  Bus2=12_145  Length=10   units=m Linecode=Line_240   
New Line.MVFeeder12.146  Bus1=12_145  Bus2=12_146  Length=10   units=m Linecode=Line_240   
New Line.MVFeeder12.147  Bus1=12_146  Bus2=12_147  Length=10   units=m Linecode=Line_240   
New Line.MVFeeder12.148  Bus1=12_147  Bus2=12_148  Length=10   units=m Linecode=Line_240   
New Line.MVFeeder12.149  Bus1=12_148  Bus2=12_149  Length=10   units=m Linecode=Line_240   
New Line.MVFeeder12.150  Bus1=12_149  Bus2=12_150  Length=10   units=m Linecode=Line_240   
New Line.MVFeeder12.151  Bus1=12_150  Bus2=12_151  Length=10   units=m Linecode=Line_240   
New Line.MVFeeder12.152  Bus1=12_151  Bus2=12_152  Length=10   units=m Linecode=Line_240   
New Line.MVFeeder12.153  Bus1=12_152  Bus2=12_153  Length=10   units=m Linecode=Line_240   
New Line.MVFeeder12.154  Bus1=12_153  Bus2=12_154  Length=10   units=m Linecode=Line_240   
New Line.MVFeeder12.155  Bus1=12_154  Bus2=12_155  Length=10   units=m Linecode=Line_240   
New Line.MVFeeder12.156  Bus1=12_155  Bus2=12_156  Length=10   units=m Linecode=Line_240   
New Line.MVFeeder12.157  Bus1=12_156  Bus2=12_157  Length=10   units=m Linecode=Line_240   
New Line.MVFeeder12.158  Bus1=12_157  Bus2=12_158  Length=10   units=m Linecode=Line_240   
New Line.MVFeeder12.159  Bus1=12_158  Bus2=12_159  Length=10   units=m Linecode=Line_240   
New Line.MVFeeder12.160  Bus1=12_159  Bus2=12_160  Length=10   units=m Linecode=Line_240   
New Line.MVFeeder12.161  Bus1=12_160  Bus2=12_161  Length=10   units=m Linecode=Line_240   
New Line.MVFeeder12.162  Bus1=12_161  Bus2=12_162  Length=10   units=m Linecode=Line_240   
New Line.MVFeeder12.163  Bus1=12_162  Bus2=12_163  Length=10   units=m Linecode=Line_240   
New Line.MVFeeder12.164  Bus1=12_163  Bus2=12_164  Length=10   units=m Linecode=Line_240   
New Line.MVFeeder12.165  Bus1=12_164  Bus2=12_165  Length=10   units=m Linecode=Line_240   
New Line.MVFeeder12.166  Bus1=12_165  Bus2=12_166  Length=10   units=m Linecode=Line_240   
New Line.MVFeeder12.167  Bus1=12_166  Bus2=12_167  Length=10   units=m Linecode=Line_240   
New Line.MVFeeder12.168  Bus1=12_167  Bus2=12_168  Length=10   units=m Linecode=Line_240   
New Line.MVFeeder12.169  Bus1=12_168  Bus2=12_169  Length=10   units=m Linecode=Line_240   
New Line.MVFeeder12.170  Bus1=12_169  Bus2=12_170  Length=10   units=m Linecode=Line_240   
New Line.MVFeeder12.171  Bus1=12_170  Bus2=12_171  Length=10   units=m Linecode=Line_240   
New Line.MVFeeder12.172  Bus1=12_171  Bus2=12_172  Length=10   units=m Linecode=Line_240   
New Line.MVFeeder12.173  Bus1=12_172  Bus2=12_173  Length=10   units=m Linecode=Line_240   
New Line.MVFeeder12.174  Bus1=12_173  Bus2=12_174  Length=10   units=m Linecode=Line_240   
New Line.MVFeeder12.175  Bus1=12_174  Bus2=12_175  Length=10   units=m Linecode=Line_240   
New Line.MVFeeder12.176  Bus1=12_175  Bus2=12_176  Length=10   units=m Linecode=Line_240   
New Line.MVFeeder12.177  Bus1=12_176  Bus2=12_177  Length=10   units=m Linecode=Line_240   
New Line.MVFeeder12.178  Bus1=12_177  Bus2=12_178  Length=10   units=m Linecode=Line_240   
New Line.MVFeeder12.179  Bus1=12_178  Bus2=12_179  Length=10   units=m Linecode=Line_240   
New Line.MVFeeder12.180  Bus1=12_179  Bus2=12_180  Length=10   units=m Linecode=Line_240   
New Line.MVFeeder12.181  Bus1=12_180  Bus2=12_181  Length=10   units=m Linecode=Line_240   
New Line.MVFeeder12.182  Bus1=12_181  Bus2=12_182  Length=10   units=m Linecode=Line_240   
New Line.MVFeeder12.183  Bus1=12_182  Bus2=12_183  Length=10   units=m Linecode=Line_240   
                            
New Line.MVLateral12_start_2 Bus1=12_182  Bus2=12_184  Length=10   units=m Linecode=Line_120    
New Line.MVLateral12.185 Bus1=12_184  Bus2=12_185  Length=10   units=m Linecode=Line_120    
New Line.MVLateral12.186 Bus1=12_185  Bus2=12_186  Length=10   units=m Linecode=Line_120    
New Line.MVLateral12.187 Bus1=12_186  Bus2=12_187  Length=10   units=m Linecode=Line_120    
New Line.MVLateral12.188 Bus1=12_187  Bus2=12_188  Length=10   units=m Linecode=Line_120    
New Line.MVLateral12.189 Bus1=12_188  Bus2=12_189  Length=10   units=m Linecode=Line_120    
New Line.MVLateral12.190 Bus1=12_189  Bus2=12_190  Length=10   units=m Linecode=Line_120    
New Line.MVLateral12.191 Bus1=12_190  Bus2=12_191  Length=10   units=m Linecode=Line_120    
New Line.MVLateral12.192 Bus1=12_191  Bus2=12_192  Length=10   units=m Linecode=Line_120    
New Line.MVLateral12.193 Bus1=12_192  Bus2=12_193  Length=10   units=m Linecode=Line_120    
New Line.MVLateral12.194 Bus1=12_193  Bus2=12_194  Length=10   units=m Linecode=Line_120    
New Line.MVLateral12.195 Bus1=12_194  Bus2=12_195  Length=10   units=m Linecode=Line_120    
New Line.MVLateral12.196 Bus1=12_195  Bus2=12_196  Length=10   units=m Linecode=Line_120    
New Line.MVLateral12.197 Bus1=12_196  Bus2=12_197  Length=10   units=m Linecode=Line_120    
New Line.MVLateral12.198 Bus1=12_197  Bus2=12_198  Length=10   units=m Linecode=Line_120    
New Line.MVLateral12.199 Bus1=12_198  Bus2=12_199  Length=10   units=m Linecode=Line_120    
New Line.MVLateral12.200 Bus1=12_199  Bus2=12_200  Length=10   units=m Linecode=Line_120    
New Line.MVLateral12.201 Bus1=12_200  Bus2=12_201  Length=10   units=m Linecode=Line_120    
New Line.MVLateral12.202 Bus1=12_201  Bus2=12_202  Length=10   units=m Linecode=Line_120    
New Line.MVLateral12.203 Bus1=12_202  Bus2=12_203  Length=10   units=m Linecode=Line_120    
New Line.MVLateral12.204 Bus1=12_203  Bus2=12_204  Length=10   units=m Linecode=Line_120    
New Line.MVLateral12.205 Bus1=12_204  Bus2=12_205  Length=10   units=m Linecode=Line_120    
New Line.MVLateral12.206 Bus1=12_205  Bus2=12_206  Length=10   units=m Linecode=Line_120    
New Line.MVLateral12.207 Bus1=12_206  Bus2=12_207  Length=10   units=m Linecode=Line_120    
New Line.MVLateral12.208 Bus1=12_207  Bus2=12_208  Length=10   units=m Linecode=Line_120    
New Line.MVLateral12.209 Bus1=12_208  Bus2=12_209  Length=10   units=m Linecode=Line_120    
New Line.MVLateral12.210 Bus1=12_209  Bus2=12_210  Length=10   units=m Linecode=Line_120    
New Line.MVLateral12.211 Bus1=12_210  Bus2=12_211  Length=10   units=m Linecode=Line_120    
New Line.MVLateral12.212 Bus1=12_211  Bus2=12_212  Length=10   units=m Linecode=Line_120    
New Line.MVLateral12.213 Bus1=12_212  Bus2=12_213  Length=10   units=m Linecode=Line_120    
New Line.MVLateral12.214 Bus1=12_213  Bus2=12_214  Length=10   units=m Linecode=Line_120    
New Line.MVLateral12.215 Bus1=12_214  Bus2=12_215  Length=10   units=m Linecode=Line_120    
New Line.MVLateral12.216 Bus1=12_215  Bus2=12_216  Length=10   units=m Linecode=Line_120    
New Line.MVLateral12.217 Bus1=12_216  Bus2=12_217  Length=10   units=m Linecode=Line_120    
New Line.MVLateral12.218 Bus1=12_217  Bus2=12_218  Length=10   units=m Linecode=Line_120    
New Line.MVLateral12.219 Bus1=12_218  Bus2=12_219  Length=10   units=m Linecode=Line_120    
New Line.MVLateral12.220 Bus1=12_219  Bus2=12_220  Length=10   units=m Linecode=Line_120    
New Line.MVLateral12.221 Bus1=12_220  Bus2=12_221  Length=10   units=m Linecode=Line_120    
New Line.MVLateral12.222 Bus1=12_221  Bus2=12_222  Length=10   units=m Linecode=Line_120    
New Line.MVLateral12.223 Bus1=12_222  Bus2=12_223  Length=10   units=m Linecode=Line_120    
New Line.MVLateral12.224 Bus1=12_223  Bus2=12_224  Length=10   units=m Linecode=Line_120    
New Line.MVLateral12.225 Bus1=12_224  Bus2=12_225  Length=10   units=m Linecode=Line_120    
New Line.MVLateral12.226 Bus1=12_225  Bus2=12_226  Length=10   units=m Linecode=Line_120    
New Line.MVLateral12.227 Bus1=12_226  Bus2=12_227  Length=10   units=m Linecode=Line_120    
New Line.MVLateral12.228 Bus1=12_227  Bus2=12_228  Length=10   units=m Linecode=Line_120    
New Line.MVLateral12.229 Bus1=12_228  Bus2=12_229  Length=10   units=m Linecode=Line_120    
New Line.MVLateral12.230 Bus1=12_229  Bus2=12_230  Length=10   units=m Linecode=Line_120    
New Line.MVLateral12.231 Bus1=12_230  Bus2=12_231  Length=10   units=m Linecode=Line_120    
New Line.MVLateral12.232 Bus1=12_231  Bus2=12_232  Length=10   units=m Linecode=Line_120    
New Line.MVLateral12.233 Bus1=12_232  Bus2=12_233  Length=10   units=m Linecode=Line_120    
New Line.MVLateral12.234 Bus1=12_233  Bus2=12_234  Length=10   units=m Linecode=Line_120    
New Line.MVLateral12.235 Bus1=12_234  Bus2=12_235  Length=10   units=m Linecode=Line_120    
New Line.MVLateral12.236 Bus1=12_235  Bus2=12_236  Length=10   units=m Linecode=Line_120    
New Line.MVLateral12.237 Bus1=12_236  Bus2=12_237  Length=10   units=m Linecode=Line_120    
New Line.MVLateral12.238 Bus1=12_237  Bus2=12_238  Length=10   units=m Linecode=Line_120    
New Line.MVLateral12.239 Bus1=12_238  Bus2=12_239  Length=10   units=m Linecode=Line_120    
New Line.MVLateral12.240 Bus1=12_239  Bus2=12_240  Length=10   units=m Linecode=Line_120    
New Line.MVLateral12.241 Bus1=12_240  Bus2=12_241  Length=10   units=m Linecode=Line_120    
New Line.MVLateral12.242 Bus1=12_241  Bus2=12_242  Length=10   units=m Linecode=Line_120    
New Line.MVLateral12.243 Bus1=12_242  Bus2=12_243  Length=10   units=m Linecode=Line_120    
New Line.MVLateral12.244 Bus1=12_243  Bus2=12_244  Length=10   units=m Linecode=Line_120    
New Line.MVLateral12.245 Bus1=12_244  Bus2=12_245  Length=10   units=m Linecode=Line_120    
New Line.MVLateral12.246 Bus1=12_245  Bus2=12_246  Length=10   units=m Linecode=Line_120    
New Line.MVLateral12.247 Bus1=12_246  Bus2=12_247  Length=10   units=m Linecode=Line_120    
New Line.MVLateral12.248 Bus1=12_247  Bus2=12_248  Length=10   units=m Linecode=Line_120    
New Line.MVLateral12.249 Bus1=12_248  Bus2=12_249  Length=10   units=m Linecode=Line_120    
New Line.MVLateral12.250 Bus1=12_249  Bus2=12_250  Length=10   units=m Linecode=Line_120    
New Line.MVLateral12.251 Bus1=12_250  Bus2=12_251  Length=10   units=m Linecode=Line_120    
New Line.MVLateral12.252 Bus1=12_251  Bus2=12_252  Length=10   units=m Linecode=Line_120    
New Line.MVLateral12.253 Bus1=12_252  Bus2=12_253  Length=10   units=m Linecode=Line_120    
New Line.MVLateral12.254 Bus1=12_253  Bus2=12_254  Length=10   units=m Linecode=Line_120    
New Line.MVLateral12.255 Bus1=12_254  Bus2=12_255  Length=10   units=m Linecode=Line_120    
New Line.MVLateral12.256 Bus1=12_255  Bus2=12_256  Length=10   units=m Linecode=Line_120    
New Line.MVLateral12.257 Bus1=12_256  Bus2=12_257  Length=10   units=m Linecode=Line_120    
New Line.MVLateral12.258 Bus1=12_257  Bus2=12_258  Length=10   units=m Linecode=Line_120    
New Line.MVLateral12.259 Bus1=12_258  Bus2=12_259  Length=10   units=m Linecode=Line_120    
New Line.MVLateral12.260 Bus1=12_259  Bus2=12_260  Length=10   units=m Linecode=Line_120    
New Line.MVLateral12.261 Bus1=12_260  Bus2=12_261  Length=10   units=m Linecode=Line_120    
New Line.MVLateral12.262 Bus1=12_261  Bus2=12_262  Length=10   units=m Linecode=Line_120    
New Line.MVLateral12.263 Bus1=12_262  Bus2=12_263  Length=10   units=m Linecode=Line_120    
New Line.MVLateral12.264 Bus1=12_263  Bus2=12_264  Length=10   units=m Linecode=Line_120    
New Line.MVLateral12.265 Bus1=12_264  Bus2=12_265  Length=10   units=m Linecode=Line_120    
New Line.MVLateral12.266 Bus1=12_265  Bus2=12_266  Length=10   units=m Linecode=Line_120    
New Line.MVLateral12.267 Bus1=12_266  Bus2=12_267  Length=10   units=m Linecode=Line_120    
New Line.MVLateral12.268 Bus1=12_267  Bus2=12_268  Length=10   units=m Linecode=Line_120    
New Line.MVLateral12.269 Bus1=12_268  Bus2=12_269  Length=10   units=m Linecode=Line_120    
New Line.MVLateral12.270 Bus1=12_269  Bus2=12_270  Length=10   units=m Linecode=Line_120    
New Line.MVLateral12.271 Bus1=12_270  Bus2=12_271  Length=10   units=m Linecode=Line_120    
New Line.MVLateral12.272 Bus1=12_271  Bus2=12_272  Length=10   units=m Linecode=Line_120    
New Line.MVLateral12.273 Bus1=12_272  Bus2=12_273  Length=10   units=m Linecode=Line_120    
New Line.MVLateral12.274 Bus1=12_273  Bus2=12_274  Length=10   units=m Linecode=Line_120    
New Line.MVLateral12.275 Bus1=12_274  Bus2=12_275  Length=10   units=m Linecode=Line_120    
New Line.MVLateral12.276 Bus1=12_275  Bus2=12_276  Length=10   units=m Linecode=Line_120    
New Line.MVLateral12.277 Bus1=12_276  Bus2=12_277  Length=10   units=m Linecode=Line_120    
New Line.MVLateral12.278 Bus1=12_277  Bus2=12_278  Length=10   units=m Linecode=Line_120    
New Line.MVLateral12.279 Bus1=12_278  Bus2=12_279  Length=10   units=m Linecode=Line_120    
New Line.MVLateral12.280 Bus1=12_279  Bus2=12_280  Length=10   units=m Linecode=Line_120    
New Line.MVLateral12.281 Bus1=12_280  Bus2=12_281  Length=10   units=m Linecode=Line_120    
New Line.MVLateral12.282 Bus1=12_281  Bus2=12_282  Length=10   units=m Linecode=Line_120    
New Line.MVLateral12.283 Bus1=12_282  Bus2=12_283  Length=10   units=m Linecode=Line_120    
New Line.MVLateral12.284 Bus1=12_283  Bus2=12_284  Length=10   units=m Linecode=Line_120    
New Line.MVLateral12.285 Bus1=12_284  Bus2=12_285  Length=10   units=m Linecode=Line_120    
New Line.MVLateral12.286 Bus1=12_285  Bus2=12_286  Length=10   units=m Linecode=Line_120    
New Line.MVLateral12.287 Bus1=12_286  Bus2=12_287  Length=10   units=m Linecode=Line_120    
New Line.MVLateral12.288 Bus1=12_287  Bus2=12_288  Length=10   units=m Linecode=Line_120    
New Line.MVLateral12.289 Bus1=12_288  Bus2=12_289  Length=10   units=m Linecode=Line_120    
New Line.MVLateral12.290 Bus1=12_289  Bus2=12_290  Length=10   units=m Linecode=Line_120    
New Line.MVLateral12.291 Bus1=12_290  Bus2=12_291  Length=10   units=m Linecode=Line_120    
New Line.MVLateral12.292 Bus1=12_291  Bus2=12_292  Length=10   units=m Linecode=Line_120    
New Line.MVLateral12.293 Bus1=12_292  Bus2=12_293  Length=10   units=m Linecode=Line_120    
New Line.MVLateral12.294 Bus1=12_293  Bus2=12_294  Length=10   units=m Linecode=Line_120    
New Line.MVLateral12.295 Bus1=12_294  Bus2=12_295  Length=10   units=m Linecode=Line_120    
New Line.MVLateral12.296 Bus1=12_295  Bus2=12_296  Length=10   units=m Linecode=Line_120    
New Line.MVLateral12.297 Bus1=12_296  Bus2=12_297  Length=10   units=m Linecode=Line_120    
New Line.MVLateral12.298 Bus1=12_297  Bus2=12_298  Length=10   units=m Linecode=Line_120    
New Line.MVLateral12.299 Bus1=12_298  Bus2=12_299  Length=10   units=m Linecode=Line_120    
New Line.MVLateral12.300 Bus1=12_299  Bus2=12_300  Length=10   units=m Linecode=Line_120    
New Line.MVLateral12.301 Bus1=12_300  Bus2=12_301  Length=10   units=m Linecode=Line_120    
New Line.MVLateral12.302 Bus1=12_301  Bus2=12_302  Length=10   units=m Linecode=Line_120    
New Line.MVLateral12.303 Bus1=12_302  Bus2=12_303  Length=10   units=m Linecode=Line_120    
New Line.MVLateral12_end_2   Bus1=12_303  Bus2=12_304  Length=10   units=m Linecode=Line_120    
                            
New Line.MVFeeder12.305  Bus1=12_183  Bus2=12_305  Length=10   units=m Linecode=Line_240   
New Line.MVFeeder12.306  Bus1=12_305  Bus2=12_306  Length=10   units=m Linecode=Line_240   
New Line.MVFeeder12.307  Bus1=12_306  Bus2=12_307  Length=10   units=m Linecode=Line_240   
New Line.MVFeeder12.308  Bus1=12_307  Bus2=12_308  Length=10   units=m Linecode=Line_240   
New Line.MVFeeder12.309  Bus1=12_308  Bus2=12_309  Length=10   units=m Linecode=Line_240   
New Line.MVFeeder12.310  Bus1=12_309  Bus2=12_310  Length=10   units=m Linecode=Line_240   
New Line.MVFeeder12.311  Bus1=12_310  Bus2=12_311  Length=10   units=m Linecode=Line_240   
New Line.MVFeeder12.312  Bus1=12_311  Bus2=12_312  Length=10   units=m Linecode=Line_240   
New Line.MVFeeder12.313  Bus1=12_312  Bus2=12_313  Length=10   units=m Linecode=Line_240   
New Line.MVFeeder12.314  Bus1=12_313  Bus2=12_314  Length=10   units=m Linecode=Line_240   
New Line.MVFeeder12.315  Bus1=12_314  Bus2=12_315  Length=10   units=m Linecode=Line_240   
New Line.MVFeeder12.316  Bus1=12_315  Bus2=12_316  Length=10   units=m Linecode=Line_240   
New Line.MVFeeder12.317  Bus1=12_316  Bus2=12_317  Length=10   units=m Linecode=Line_240   
New Line.MVFeeder12.318  Bus1=12_317  Bus2=12_318  Length=10   units=m Linecode=Line_240   
New Line.MVFeeder12.319  Bus1=12_318  Bus2=12_319  Length=10   units=m Linecode=Line_240   
New Line.MVFeeder12.320  Bus1=12_319  Bus2=12_320  Length=10   units=m Linecode=Line_240   
New Line.MVFeeder12.321  Bus1=12_320  Bus2=12_321  Length=10   units=m Linecode=Line_240   
New Line.MVFeeder12.322  Bus1=12_321  Bus2=12_322  Length=10   units=m Linecode=Line_240   
New Line.MVFeeder12.323  Bus1=12_322  Bus2=12_323  Length=10   units=m Linecode=Line_240   
New Line.MVFeeder12.324  Bus1=12_323  Bus2=12_324  Length=10   units=m Linecode=Line_240   
New Line.MVFeeder12.325  Bus1=12_324  Bus2=12_325  Length=10   units=m Linecode=Line_240   
New Line.MVFeeder12.326  Bus1=12_325  Bus2=12_326  Length=10   units=m Linecode=Line_240   
New Line.MVFeeder12.327  Bus1=12_326  Bus2=12_327  Length=10   units=m Linecode=Line_240   
New Line.MVFeeder12.328  Bus1=12_327  Bus2=12_328  Length=10   units=m Linecode=Line_240   
New Line.MVFeeder12.329  Bus1=12_328  Bus2=12_329  Length=10   units=m Linecode=Line_240   
New Line.MVFeeder12.330  Bus1=12_329  Bus2=12_330  Length=10   units=m Linecode=Line_240   