New Line.MVFeeder11.1    Bus1=Main_Busbar    Bus2=11_1    Length=10   units=m Linecode=Line_240   
New Line.MVFeeder11.2    Bus1=11_1    Bus2=11_2    Length=10   units=m Linecode=Line_240   
New Line.MVFeeder11.3    Bus1=11_2    Bus2=11_3    Length=10   units=m Linecode=Line_240   
New Line.MVFeeder11.4    Bus1=11_3    Bus2=11_4    Length=10   units=m Linecode=Line_240   
New Line.MVFeeder11.5    Bus1=11_4    Bus2=11_5    Length=10   units=m Linecode=Line_240   
New Line.MVFeeder11.6    Bus1=11_5    Bus2=11_6    Length=10   units=m Linecode=Line_240   
New Line.MVFeeder11.7    Bus1=11_6    Bus2=11_7    Length=10   units=m Linecode=Line_240   
New Line.MVFeeder11.8    Bus1=11_7    Bus2=11_8    Length=10   units=m Linecode=Line_240   
New Line.MVFeeder11.9    Bus1=11_8    Bus2=11_9    Length=10   units=m Linecode=Line_240   
New Line.MVFeeder11.10   Bus1=11_9    Bus2=11_10   Length=10   units=m Linecode=Line_240   
New Line.MVFeeder11.11   Bus1=11_10   Bus2=11_11   Length=10   units=m Linecode=Line_240   
New Line.MVFeeder11.12   Bus1=11_11   Bus2=11_12   Length=10   units=m Linecode=Line_240   
New Line.MVFeeder11.13   Bus1=11_12   Bus2=11_13   Length=10   units=m Linecode=Line_240   
New Line.MVFeeder11.14   Bus1=11_13   Bus2=11_14   Length=10   units=m Linecode=Line_240   
New Line.MVFeeder11.15   Bus1=11_14   Bus2=11_15   Length=10   units=m Linecode=Line_240   
New Line.MVFeeder11.16   Bus1=11_15   Bus2=11_16   Length=10   units=m Linecode=Line_240   
New Line.MVFeeder11.17   Bus1=11_16   Bus2=11_17   Length=10   units=m Linecode=Line_240   
New Line.MVFeeder11.18   Bus1=11_17   Bus2=11_18   Length=10   units=m Linecode=Line_240   
New Line.MVFeeder11.19   Bus1=11_18   Bus2=11_19   Length=10   units=m Linecode=Line_240   
New Line.MVFeeder11.20   Bus1=11_19   Bus2=11_20   Length=10   units=m Linecode=Line_240   
New Line.MVFeeder11.21   Bus1=11_20   Bus2=11_21   Length=10   units=m Linecode=Line_240   
                            
                            
New Line.MVLateral11_start_1 Bus1=11_20   Bus2=11_22   Length=10   units=m Linecode=Line_120    
New Line.MVLateral11.23  Bus1=11_22   Bus2=11_23   Length=10   units=m Linecode=Line_120    
New Line.MVLateral11.24  Bus1=11_23   Bus2=11_24   Length=10   units=m Linecode=Line_120    
New Line.MVLateral11.25  Bus1=11_24   Bus2=11_25   Length=10   units=m Linecode=Line_120    
New Line.MVLateral11.26  Bus1=11_25   Bus2=11_26   Length=10   units=m Linecode=Line_120    
New Line.MVLateral11.27  Bus1=11_26   Bus2=11_27   Length=10   units=m Linecode=Line_120    
New Line.MVLateral11.28  Bus1=11_27   Bus2=11_28   Length=10   units=m Linecode=Line_120    
New Line.MVLateral11.29  Bus1=11_28   Bus2=11_29   Length=10   units=m Linecode=Line_120    
New Line.MVLateral11.30  Bus1=11_29   Bus2=11_30   Length=10   units=m Linecode=Line_120    
New Line.MVLateral11.31  Bus1=11_30   Bus2=11_31   Length=10   units=m Linecode=Line_120    
New Line.MVLateral11.32  Bus1=11_31   Bus2=11_32   Length=10   units=m Linecode=Line_120    
New Line.MVLateral11.33  Bus1=11_32   Bus2=11_33   Length=10   units=m Linecode=Line_120    
New Line.MVLateral11.34  Bus1=11_33   Bus2=11_34   Length=10   units=m Linecode=Line_120    
New Line.MVLateral11.35  Bus1=11_34   Bus2=11_35   Length=10   units=m Linecode=Line_120    
New Line.MVLateral11.36  Bus1=11_35   Bus2=11_36   Length=10   units=m Linecode=Line_120    
New Line.MVLateral11.37  Bus1=11_36   Bus2=11_37   Length=10   units=m Linecode=Line_120    
New Line.MVLateral11.38  Bus1=11_37   Bus2=11_38   Length=10   units=m Linecode=Line_120    
New Line.MVLateral11.39  Bus1=11_38   Bus2=11_39   Length=10   units=m Linecode=Line_120    
New Line.MVLateral11.40  Bus1=11_39   Bus2=11_40   Length=10   units=m Linecode=Line_120    
New Line.MVLateral11.41  Bus1=11_40   Bus2=11_41   Length=10   units=m Linecode=Line_120    
New Line.MVLateral11.42  Bus1=11_41   Bus2=11_42   Length=10   units=m Linecode=Line_120    
New Line.MVLateral11.43  Bus1=11_42   Bus2=11_43   Length=10   units=m Linecode=Line_120    
New Line.MVLateral11.44  Bus1=11_43   Bus2=11_44   Length=10   units=m Linecode=Line_120    
New Line.MVLateral11.45  Bus1=11_44   Bus2=11_45   Length=10   units=m Linecode=Line_120    
New Line.MVLateral11.46  Bus1=11_45   Bus2=11_46   Length=10   units=m Linecode=Line_120    
New Line.MVLateral11.47  Bus1=11_46   Bus2=11_47   Length=10   units=m Linecode=Line_120    
New Line.MVLateral11.48  Bus1=11_47   Bus2=11_48   Length=10   units=m Linecode=Line_120    
New Line.MVLateral11.49  Bus1=11_48   Bus2=11_49   Length=10   units=m Linecode=Line_120    
New Line.MVLateral11.50  Bus1=11_49   Bus2=11_50   Length=10   units=m Linecode=Line_120    
New Line.MVLateral11.51  Bus1=11_50   Bus2=11_51   Length=10   units=m Linecode=Line_120    
New Line.MVLateral11.52  Bus1=11_51   Bus2=11_52   Length=10   units=m Linecode=Line_120    
New Line.MVLateral11.53  Bus1=11_52   Bus2=11_53   Length=10   units=m Linecode=Line_120    
New Line.MVLateral11.54  Bus1=11_53   Bus2=11_54   Length=10   units=m Linecode=Line_120    
New Line.MVLateral11.55  Bus1=11_54   Bus2=11_55   Length=10   units=m Linecode=Line_120    
New Line.MVLateral11.56  Bus1=11_55   Bus2=11_56   Length=10   units=m Linecode=Line_120    
New Line.MVLateral11.57  Bus1=11_56   Bus2=11_57   Length=10   units=m Linecode=Line_120    
New Line.MVLateral11.58  Bus1=11_57   Bus2=11_58   Length=10   units=m Linecode=Line_120    
New Line.MVLateral11.59  Bus1=11_58   Bus2=11_59   Length=10   units=m Linecode=Line_120    
New Line.MVLateral11.60  Bus1=11_59   Bus2=11_60   Length=10   units=m Linecode=Line_120    
New Line.MVLateral11.61  Bus1=11_60   Bus2=11_61   Length=10   units=m Linecode=Line_120    
New Line.MVLateral11.62  Bus1=11_61   Bus2=11_62   Length=10   units=m Linecode=Line_120    
New Line.MVLateral11.63  Bus1=11_62   Bus2=11_63   Length=10   units=m Linecode=Line_120    
New Line.MVLateral11.64  Bus1=11_63   Bus2=11_64   Length=10   units=m Linecode=Line_120    
New Line.MVLateral11.65  Bus1=11_64   Bus2=11_65   Length=10   units=m Linecode=Line_120    
New Line.MVLateral11.66  Bus1=11_65   Bus2=11_66   Length=10   units=m Linecode=Line_120    
New Line.MVLateral11.67  Bus1=11_66   Bus2=11_67   Length=10   units=m Linecode=Line_120    
New Line.MVLateral11.68  Bus1=11_67   Bus2=11_68   Length=10   units=m Linecode=Line_120    
New Line.MVLateral11.69  Bus1=11_68   Bus2=11_69   Length=10   units=m Linecode=Line_120    
New Line.MVLateral11.70  Bus1=11_69   Bus2=11_70   Length=10   units=m Linecode=Line_120    
New Line.MVLateral11.71  Bus1=11_70   Bus2=11_71   Length=10   units=m Linecode=Line_120    
New Line.MVLateral11.72  Bus1=11_71   Bus2=11_72   Length=10   units=m Linecode=Line_120    
New Line.MVLateral11.73  Bus1=11_72   Bus2=11_73   Length=10   units=m Linecode=Line_120    
New Line.MVLateral11.74  Bus1=11_73   Bus2=11_74   Length=10   units=m Linecode=Line_120    
New Line.MVLateral11.75  Bus1=11_74   Bus2=11_75   Length=10   units=m Linecode=Line_120    
                            
New Line.MVLateral11.86  Bus1=11_85   Bus2=11_86   Length=10   units=m Linecode=Line_120    
New Line.MVLateral11.87  Bus1=11_86   Bus2=11_87   Length=10   units=m Linecode=Line_120    
New Line.MVLateral11.88  Bus1=11_87   Bus2=11_88   Length=10   units=m Linecode=Line_120    
New Line.MVLateral11.89  Bus1=11_88   Bus2=11_89   Length=10   units=m Linecode=Line_120    
New Line.MVLateral11.90  Bus1=11_89   Bus2=11_90   Length=10   units=m Linecode=Line_120    
New Line.MVLateral11.91  Bus1=11_90   Bus2=11_91   Length=10   units=m Linecode=Line_120    
New Line.MVLateral11.92  Bus1=11_91   Bus2=11_92   Length=10   units=m Linecode=Line_120    
New Line.MVLateral11.93  Bus1=11_92   Bus2=11_93   Length=10   units=m Linecode=Line_120    
New Line.MVLateral11.94  Bus1=11_93   Bus2=11_94   Length=10   units=m Linecode=Line_120    
New Line.MVLateral11.95  Bus1=11_94   Bus2=11_95   Length=10   units=m Linecode=Line_120    
New Line.MVLateral11.96  Bus1=11_95   Bus2=11_96   Length=10   units=m Linecode=Line_120    
New Line.MVLateral11.97  Bus1=11_96   Bus2=11_97   Length=10   units=m Linecode=Line_120    
New Line.MVLateral11.98  Bus1=11_97   Bus2=11_98   Length=10   units=m Linecode=Line_120    
New Line.MVLateral11.99  Bus1=11_98   Bus2=11_99   Length=10   units=m Linecode=Line_120    
New Line.MVLateral11.100 Bus1=11_99   Bus2=11_100  Length=10   units=m Linecode=Line_120    
New Line.MVLateral11.101 Bus1=11_100  Bus2=11_101  Length=10   units=m Linecode=Line_120    
New Line.MVLateral11.102 Bus1=11_101  Bus2=11_102  Length=10   units=m Linecode=Line_120    
New Line.MVLateral11.103 Bus1=11_102  Bus2=11_103  Length=10   units=m Linecode=Line_120    
New Line.MVLateral11.104 Bus1=11_103  Bus2=11_104  Length=10   units=m Linecode=Line_120    
New Line.MVLateral11.105 Bus1=11_104  Bus2=11_105  Length=10   units=m Linecode=Line_120    
New Line.MVLateral11.106 Bus1=11_105  Bus2=11_106  Length=10   units=m Linecode=Line_120    
New Line.MVLateral11.107 Bus1=11_106  Bus2=11_107  Length=10   units=m Linecode=Line_120    
New Line.MVLateral11.108 Bus1=11_107  Bus2=11_108  Length=10   units=m Linecode=Line_120    
New Line.MVLateral11.109 Bus1=11_108  Bus2=11_109  Length=10   units=m Linecode=Line_120    
New Line.MVLateral11.110 Bus1=11_109  Bus2=11_110  Length=10   units=m Linecode=Line_120    
New Line.MVLateral11.111 Bus1=11_110  Bus2=11_111  Length=10   units=m Linecode=Line_120    
New Line.MVLateral11.112 Bus1=11_111  Bus2=11_112  Length=10   units=m Linecode=Line_120    
New Line.MVLateral11.113 Bus1=11_112  Bus2=11_113  Length=10   units=m Linecode=Line_120    
New Line.MVLateral11.114 Bus1=11_113  Bus2=11_114  Length=10   units=m Linecode=Line_120    
New Line.MVLateral11.115 Bus1=11_114  Bus2=11_115  Length=10   units=m Linecode=Line_120    
New Line.MVLateral11.116 Bus1=11_115  Bus2=11_116  Length=10   units=m Linecode=Line_120    
New Line.MVLateral11.117 Bus1=11_116  Bus2=11_117  Length=10   units=m Linecode=Line_120    
New Line.MVLateral11.118 Bus1=11_117  Bus2=11_118  Length=10   units=m Linecode=Line_120    
New Line.MVLateral11.119 Bus1=11_118  Bus2=11_119  Length=10   units=m Linecode=Line_120    
New Line.MVLateral11.120 Bus1=11_119  Bus2=11_120  Length=10   units=m Linecode=Line_120    
New Line.MVLateral11.121 Bus1=11_120  Bus2=11_121  Length=10   units=m Linecode=Line_120    
New Line.MVLateral11.122 Bus1=11_121  Bus2=11_122  Length=10   units=m Linecode=Line_120    
                            
New Line.MVLateral11.123 Bus1=11_122  Bus2=11_123  Length=10   units=m Linecode=Line_120    
New Line.MVLateral11.124 Bus1=11_123  Bus2=11_124  Length=10   units=m Linecode=Line_120    
New Line.MVLateral11.125 Bus1=11_124  Bus2=11_125  Length=10   units=m Linecode=Line_120    
New Line.MVLateral11.126 Bus1=11_125  Bus2=11_126  Length=10   units=m Linecode=Line_120    
New Line.MVLateral11.127 Bus1=11_126  Bus2=11_127  Length=10   units=m Linecode=Line_120    
New Line.MVLateral11.128 Bus1=11_127  Bus2=11_128  Length=10   units=m Linecode=Line_120    
New Line.MVLateral11.129 Bus1=11_128  Bus2=11_129  Length=10   units=m Linecode=Line_120    
New Line.MVLateral11.130 Bus1=11_129  Bus2=11_130  Length=10   units=m Linecode=Line_120    
                            
New Line.MVLateral11.131 Bus1=11_130  Bus2=11_131  Length=10   units=m Linecode=Line_120    
New Line.MVLateral11.132 Bus1=11_131  Bus2=11_132  Length=10   units=m Linecode=Line_120    
New Line.MVLateral11.133 Bus1=11_132  Bus2=11_133  Length=10   units=m Linecode=Line_120    
New Line.MVLateral11.134 Bus1=11_133  Bus2=11_134  Length=10   units=m Linecode=Line_120    
New Line.MVLateral11.135 Bus1=11_134  Bus2=11_135  Length=10   units=m Linecode=Line_120    
New Line.MVLateral11.136 Bus1=11_135  Bus2=11_136  Length=10   units=m Linecode=Line_120    
New Line.MVLateral11.137 Bus1=11_136  Bus2=11_137  Length=10   units=m Linecode=Line_120    
New Line.MVLateral11.138 Bus1=11_137  Bus2=11_138  Length=10   units=m Linecode=Line_120    
New Line.MVLateral11.139 Bus1=11_138  Bus2=11_139  Length=10   units=m Linecode=Line_120    
New Line.MVLateral11.140 Bus1=11_139  Bus2=11_140  Length=10   units=m Linecode=Line_120    
New Line.MVLateral11.141 Bus1=11_140  Bus2=11_141  Length=10   units=m Linecode=Line_120    
New Line.MVLateral11_end_1   Bus1=11_141  Bus2=11_142  Length=10   units=m Linecode=Line_120    
                            
New Line.MVFeeder11.143  Bus1=11_21   Bus2=11_143  Length=10   units=m Linecode=Line_240   
New Line.MVFeeder11.144  Bus1=11_143  Bus2=11_144  Length=10   units=m Linecode=Line_240   
New Line.MVFeeder11.145  Bus1=11_144  Bus2=11_145  Length=10   units=m Linecode=Line_240   
New Line.MVFeeder11.146  Bus1=11_145  Bus2=11_146  Length=10   units=m Linecode=Line_240   
New Line.MVFeeder11.147  Bus1=11_146  Bus2=11_147  Length=10   units=m Linecode=Line_240   
New Line.MVFeeder11.148  Bus1=11_147  Bus2=11_148  Length=10   units=m Linecode=Line_240   
New Line.MVFeeder11.149  Bus1=11_148  Bus2=11_149  Length=10   units=m Linecode=Line_240   
New Line.MVFeeder11.150  Bus1=11_149  Bus2=11_150  Length=10   units=m Linecode=Line_240   
New Line.MVFeeder11.151  Bus1=11_150  Bus2=11_151  Length=10   units=m Linecode=Line_240   
New Line.MVFeeder11.152  Bus1=11_151  Bus2=11_152  Length=10   units=m Linecode=Line_240   
New Line.MVFeeder11.153  Bus1=11_152  Bus2=11_153  Length=10   units=m Linecode=Line_240   
New Line.MVFeeder11.154  Bus1=11_153  Bus2=11_154  Length=10   units=m Linecode=Line_240   
New Line.MVFeeder11.155  Bus1=11_154  Bus2=11_155  Length=10   units=m Linecode=Line_240   
New Line.MVFeeder11.156  Bus1=11_155  Bus2=11_156  Length=10   units=m Linecode=Line_240   
New Line.MVFeeder11.157  Bus1=11_156  Bus2=11_157  Length=10   units=m Linecode=Line_240   
New Line.MVFeeder11.158  Bus1=11_157  Bus2=11_158  Length=10   units=m Linecode=Line_240   
New Line.MVFeeder11.159  Bus1=11_158  Bus2=11_159  Length=10   units=m Linecode=Line_240   
New Line.MVFeeder11.160  Bus1=11_159  Bus2=11_160  Length=10   units=m Linecode=Line_240   
New Line.MVFeeder11.161  Bus1=11_160  Bus2=11_161  Length=10   units=m Linecode=Line_240   
New Line.MVFeeder11.162  Bus1=11_161  Bus2=11_162  Length=10   units=m Linecode=Line_240   
New Line.MVFeeder11.163  Bus1=11_162  Bus2=11_163  Length=10   units=m Linecode=Line_240   
New Line.MVFeeder11.164  Bus1=11_163  Bus2=11_164  Length=10   units=m Linecode=Line_240   
New Line.MVFeeder11.165  Bus1=11_164  Bus2=11_165  Length=10   units=m Linecode=Line_240   
New Line.MVFeeder11.166  Bus1=11_165  Bus2=11_166  Length=10   units=m Linecode=Line_240   
New Line.MVFeeder11.167  Bus1=11_166  Bus2=11_167  Length=10   units=m Linecode=Line_240   
New Line.MVFeeder11.168  Bus1=11_167  Bus2=11_168  Length=10   units=m Linecode=Line_240   
New Line.MVFeeder11.169  Bus1=11_168  Bus2=11_169  Length=10   units=m Linecode=Line_240   
New Line.MVFeeder11.170  Bus1=11_169  Bus2=11_170  Length=10   units=m Linecode=Line_240   
New Line.MVFeeder11.171  Bus1=11_170  Bus2=11_171  Length=10   units=m Linecode=Line_240   
New Line.MVFeeder11.172  Bus1=11_171  Bus2=11_172  Length=10   units=m Linecode=Line_240   
New Line.MVFeeder11.173  Bus1=11_172  Bus2=11_173  Length=10   units=m Linecode=Line_240   
New Line.MVFeeder11.174  Bus1=11_173  Bus2=11_174  Length=10   units=m Linecode=Line_240   
New Line.MVFeeder11.175  Bus1=11_174  Bus2=11_175  Length=10   units=m Linecode=Line_240   
New Line.MVFeeder11.176  Bus1=11_175  Bus2=11_176  Length=10   units=m Linecode=Line_240   
New Line.MVFeeder11.177  Bus1=11_176  Bus2=11_177  Length=10   units=m Linecode=Line_240   
New Line.MVFeeder11.178  Bus1=11_177  Bus2=11_178  Length=10   units=m Linecode=Line_240   
New Line.MVFeeder11.179  Bus1=11_178  Bus2=11_179  Length=10   units=m Linecode=Line_240   
New Line.MVFeeder11.180  Bus1=11_179  Bus2=11_180  Length=10   units=m Linecode=Line_240   
New Line.MVFeeder11.181  Bus1=11_180  Bus2=11_181  Length=10   units=m Linecode=Line_240   
New Line.MVFeeder11.182  Bus1=11_181  Bus2=11_182  Length=10   units=m Linecode=Line_240   
New Line.MVFeeder11.183  Bus1=11_182  Bus2=11_183  Length=10   units=m Linecode=Line_240   
                            
New Line.MVLateral11_start_2 Bus1=11_182  Bus2=11_184  Length=10   units=m Linecode=Line_120    
New Line.MVLateral11.185 Bus1=11_184  Bus2=11_185  Length=10   units=m Linecode=Line_120    
New Line.MVLateral11.186 Bus1=11_185  Bus2=11_186  Length=10   units=m Linecode=Line_120    
New Line.MVLateral11.187 Bus1=11_186  Bus2=11_187  Length=10   units=m Linecode=Line_120    
New Line.MVLateral11.188 Bus1=11_187  Bus2=11_188  Length=10   units=m Linecode=Line_120    
New Line.MVLateral11.189 Bus1=11_188  Bus2=11_189  Length=10   units=m Linecode=Line_120    
New Line.MVLateral11.190 Bus1=11_189  Bus2=11_190  Length=10   units=m Linecode=Line_120    
New Line.MVLateral11.191 Bus1=11_190  Bus2=11_191  Length=10   units=m Linecode=Line_120    
New Line.MVLateral11.192 Bus1=11_191  Bus2=11_192  Length=10   units=m Linecode=Line_120    
New Line.MVLateral11.193 Bus1=11_192  Bus2=11_193  Length=10   units=m Linecode=Line_120    
New Line.MVLateral11.194 Bus1=11_193  Bus2=11_194  Length=10   units=m Linecode=Line_120    
New Line.MVLateral11.195 Bus1=11_194  Bus2=11_195  Length=10   units=m Linecode=Line_120    
New Line.MVLateral11.196 Bus1=11_195  Bus2=11_196  Length=10   units=m Linecode=Line_120    
New Line.MVLateral11.197 Bus1=11_196  Bus2=11_197  Length=10   units=m Linecode=Line_120    
New Line.MVLateral11.198 Bus1=11_197  Bus2=11_198  Length=10   units=m Linecode=Line_120    
New Line.MVLateral11.199 Bus1=11_198  Bus2=11_199  Length=10   units=m Linecode=Line_120    
New Line.MVLateral11.200 Bus1=11_199  Bus2=11_200  Length=10   units=m Linecode=Line_120    
New Line.MVLateral11.201 Bus1=11_200  Bus2=11_201  Length=10   units=m Linecode=Line_120    
New Line.MVLateral11.202 Bus1=11_201  Bus2=11_202  Length=10   units=m Linecode=Line_120    
New Line.MVLateral11.203 Bus1=11_202  Bus2=11_203  Length=10   units=m Linecode=Line_120    
New Line.MVLateral11.204 Bus1=11_203  Bus2=11_204  Length=10   units=m Linecode=Line_120    
New Line.MVLateral11.205 Bus1=11_204  Bus2=11_205  Length=10   units=m Linecode=Line_120    
New Line.MVLateral11.206 Bus1=11_205  Bus2=11_206  Length=10   units=m Linecode=Line_120    
New Line.MVLateral11.207 Bus1=11_206  Bus2=11_207  Length=10   units=m Linecode=Line_120    
New Line.MVLateral11.208 Bus1=11_207  Bus2=11_208  Length=10   units=m Linecode=Line_120    
New Line.MVLateral11.209 Bus1=11_208  Bus2=11_209  Length=10   units=m Linecode=Line_120    
New Line.MVLateral11.210 Bus1=11_209  Bus2=11_210  Length=10   units=m Linecode=Line_120    
New Line.MVLateral11.211 Bus1=11_210  Bus2=11_211  Length=10   units=m Linecode=Line_120    
New Line.MVLateral11.212 Bus1=11_211  Bus2=11_212  Length=10   units=m Linecode=Line_120    
New Line.MVLateral11.213 Bus1=11_212  Bus2=11_213  Length=10   units=m Linecode=Line_120    
New Line.MVLateral11.214 Bus1=11_213  Bus2=11_214  Length=10   units=m Linecode=Line_120    
New Line.MVLateral11.215 Bus1=11_214  Bus2=11_215  Length=10   units=m Linecode=Line_120    
New Line.MVLateral11.216 Bus1=11_215  Bus2=11_216  Length=10   units=m Linecode=Line_120    
New Line.MVLateral11.217 Bus1=11_216  Bus2=11_217  Length=10   units=m Linecode=Line_120    
New Line.MVLateral11.218 Bus1=11_217  Bus2=11_218  Length=10   units=m Linecode=Line_120    
New Line.MVLateral11.219 Bus1=11_218  Bus2=11_219  Length=10   units=m Linecode=Line_120    
New Line.MVLateral11.220 Bus1=11_219  Bus2=11_220  Length=10   units=m Linecode=Line_120    
New Line.MVLateral11.221 Bus1=11_220  Bus2=11_221  Length=10   units=m Linecode=Line_120    
New Line.MVLateral11.222 Bus1=11_221  Bus2=11_222  Length=10   units=m Linecode=Line_120    
New Line.MVLateral11.223 Bus1=11_222  Bus2=11_223  Length=10   units=m Linecode=Line_120    
New Line.MVLateral11.224 Bus1=11_223  Bus2=11_224  Length=10   units=m Linecode=Line_120    
New Line.MVLateral11.225 Bus1=11_224  Bus2=11_225  Length=10   units=m Linecode=Line_120    
New Line.MVLateral11.226 Bus1=11_225  Bus2=11_226  Length=10   units=m Linecode=Line_120    
New Line.MVLateral11.227 Bus1=11_226  Bus2=11_227  Length=10   units=m Linecode=Line_120    
New Line.MVLateral11.228 Bus1=11_227  Bus2=11_228  Length=10   units=m Linecode=Line_120    
New Line.MVLateral11.229 Bus1=11_228  Bus2=11_229  Length=10   units=m Linecode=Line_120    
New Line.MVLateral11.230 Bus1=11_229  Bus2=11_230  Length=10   units=m Linecode=Line_120    
New Line.MVLateral11.231 Bus1=11_230  Bus2=11_231  Length=10   units=m Linecode=Line_120    
New Line.MVLateral11.232 Bus1=11_231  Bus2=11_232  Length=10   units=m Linecode=Line_120    
New Line.MVLateral11.233 Bus1=11_232  Bus2=11_233  Length=10   units=m Linecode=Line_120    
New Line.MVLateral11.234 Bus1=11_233  Bus2=11_234  Length=10   units=m Linecode=Line_120    
New Line.MVLateral11.235 Bus1=11_234  Bus2=11_235  Length=10   units=m Linecode=Line_120    
New Line.MVLateral11.236 Bus1=11_235  Bus2=11_236  Length=10   units=m Linecode=Line_120    
New Line.MVLateral11.237 Bus1=11_236  Bus2=11_237  Length=10   units=m Linecode=Line_120    
New Line.MVLateral11.238 Bus1=11_237  Bus2=11_238  Length=10   units=m Linecode=Line_120    
New Line.MVLateral11.239 Bus1=11_238  Bus2=11_239  Length=10   units=m Linecode=Line_120    
New Line.MVLateral11.240 Bus1=11_239  Bus2=11_240  Length=10   units=m Linecode=Line_120    
New Line.MVLateral11.241 Bus1=11_240  Bus2=11_241  Length=10   units=m Linecode=Line_120    
New Line.MVLateral11.242 Bus1=11_241  Bus2=11_242  Length=10   units=m Linecode=Line_120    
New Line.MVLateral11.243 Bus1=11_242  Bus2=11_243  Length=10   units=m Linecode=Line_120    
New Line.MVLateral11.244 Bus1=11_243  Bus2=11_244  Length=10   units=m Linecode=Line_120    
New Line.MVLateral11.245 Bus1=11_244  Bus2=11_245  Length=10   units=m Linecode=Line_120    
New Line.MVLateral11.246 Bus1=11_245  Bus2=11_246  Length=10   units=m Linecode=Line_120    
New Line.MVLateral11.247 Bus1=11_246  Bus2=11_247  Length=10   units=m Linecode=Line_120    
New Line.MVLateral11.248 Bus1=11_247  Bus2=11_248  Length=10   units=m Linecode=Line_120    
New Line.MVLateral11.249 Bus1=11_248  Bus2=11_249  Length=10   units=m Linecode=Line_120    
New Line.MVLateral11.250 Bus1=11_249  Bus2=11_250  Length=10   units=m Linecode=Line_120    
New Line.MVLateral11.251 Bus1=11_250  Bus2=11_251  Length=10   units=m Linecode=Line_120    
New Line.MVLateral11.252 Bus1=11_251  Bus2=11_252  Length=10   units=m Linecode=Line_120    
New Line.MVLateral11.253 Bus1=11_252  Bus2=11_253  Length=10   units=m Linecode=Line_120    
New Line.MVLateral11.254 Bus1=11_253  Bus2=11_254  Length=10   units=m Linecode=Line_120    
New Line.MVLateral11.255 Bus1=11_254  Bus2=11_255  Length=10   units=m Linecode=Line_120    
New Line.MVLateral11.256 Bus1=11_255  Bus2=11_256  Length=10   units=m Linecode=Line_120    
New Line.MVLateral11.257 Bus1=11_256  Bus2=11_257  Length=10   units=m Linecode=Line_120    
New Line.MVLateral11.258 Bus1=11_257  Bus2=11_258  Length=10   units=m Linecode=Line_120    
New Line.MVLateral11.259 Bus1=11_258  Bus2=11_259  Length=10   units=m Linecode=Line_120    
New Line.MVLateral11.260 Bus1=11_259  Bus2=11_260  Length=10   units=m Linecode=Line_120    
New Line.MVLateral11.261 Bus1=11_260  Bus2=11_261  Length=10   units=m Linecode=Line_120    
New Line.MVLateral11.262 Bus1=11_261  Bus2=11_262  Length=10   units=m Linecode=Line_120    
New Line.MVLateral11.263 Bus1=11_262  Bus2=11_263  Length=10   units=m Linecode=Line_120    
New Line.MVLateral11.264 Bus1=11_263  Bus2=11_264  Length=10   units=m Linecode=Line_120    
New Line.MVLateral11.265 Bus1=11_264  Bus2=11_265  Length=10   units=m Linecode=Line_120    
New Line.MVLateral11.266 Bus1=11_265  Bus2=11_266  Length=10   units=m Linecode=Line_120    
New Line.MVLateral11.267 Bus1=11_266  Bus2=11_267  Length=10   units=m Linecode=Line_120    
New Line.MVLateral11.268 Bus1=11_267  Bus2=11_268  Length=10   units=m Linecode=Line_120    
New Line.MVLateral11.269 Bus1=11_268  Bus2=11_269  Length=10   units=m Linecode=Line_120    
New Line.MVLateral11.270 Bus1=11_269  Bus2=11_270  Length=10   units=m Linecode=Line_120    
New Line.MVLateral11.271 Bus1=11_270  Bus2=11_271  Length=10   units=m Linecode=Line_120    
New Line.MVLateral11.272 Bus1=11_271  Bus2=11_272  Length=10   units=m Linecode=Line_120    
New Line.MVLateral11.273 Bus1=11_272  Bus2=11_273  Length=10   units=m Linecode=Line_120    
New Line.MVLateral11.274 Bus1=11_273  Bus2=11_274  Length=10   units=m Linecode=Line_120    
New Line.MVLateral11.275 Bus1=11_274  Bus2=11_275  Length=10   units=m Linecode=Line_120    
New Line.MVLateral11.276 Bus1=11_275  Bus2=11_276  Length=10   units=m Linecode=Line_120    
New Line.MVLateral11.277 Bus1=11_276  Bus2=11_277  Length=10   units=m Linecode=Line_120    
New Line.MVLateral11.278 Bus1=11_277  Bus2=11_278  Length=10   units=m Linecode=Line_120    
New Line.MVLateral11.279 Bus1=11_278  Bus2=11_279  Length=10   units=m Linecode=Line_120    
New Line.MVLateral11.280 Bus1=11_279  Bus2=11_280  Length=10   units=m Linecode=Line_120    
New Line.MVLateral11.281 Bus1=11_280  Bus2=11_281  Length=10   units=m Linecode=Line_120    
New Line.MVLateral11.282 Bus1=11_281  Bus2=11_282  Length=10   units=m Linecode=Line_120    
New Line.MVLateral11.283 Bus1=11_282  Bus2=11_283  Length=10   units=m Linecode=Line_120    
New Line.MVLateral11.284 Bus1=11_283  Bus2=11_284  Length=10   units=m Linecode=Line_120    
New Line.MVLateral11.285 Bus1=11_284  Bus2=11_285  Length=10   units=m Linecode=Line_120    
New Line.MVLateral11.286 Bus1=11_285  Bus2=11_286  Length=10   units=m Linecode=Line_120    
New Line.MVLateral11.287 Bus1=11_286  Bus2=11_287  Length=10   units=m Linecode=Line_120    
New Line.MVLateral11.288 Bus1=11_287  Bus2=11_288  Length=10   units=m Linecode=Line_120    
New Line.MVLateral11.289 Bus1=11_288  Bus2=11_289  Length=10   units=m Linecode=Line_120    
New Line.MVLateral11.290 Bus1=11_289  Bus2=11_290  Length=10   units=m Linecode=Line_120    
New Line.MVLateral11.291 Bus1=11_290  Bus2=11_291  Length=10   units=m Linecode=Line_120    
New Line.MVLateral11.292 Bus1=11_291  Bus2=11_292  Length=10   units=m Linecode=Line_120    
New Line.MVLateral11.293 Bus1=11_292  Bus2=11_293  Length=10   units=m Linecode=Line_120    
New Line.MVLateral11.294 Bus1=11_293  Bus2=11_294  Length=10   units=m Linecode=Line_120    
New Line.MVLateral11.295 Bus1=11_294  Bus2=11_295  Length=10   units=m Linecode=Line_120    
New Line.MVLateral11.296 Bus1=11_295  Bus2=11_296  Length=10   units=m Linecode=Line_120    
New Line.MVLateral11.297 Bus1=11_296  Bus2=11_297  Length=10   units=m Linecode=Line_120    
New Line.MVLateral11.298 Bus1=11_297  Bus2=11_298  Length=10   units=m Linecode=Line_120    
New Line.MVLateral11.299 Bus1=11_298  Bus2=11_299  Length=10   units=m Linecode=Line_120    
New Line.MVLateral11.300 Bus1=11_299  Bus2=11_300  Length=10   units=m Linecode=Line_120    
New Line.MVLateral11.301 Bus1=11_300  Bus2=11_301  Length=10   units=m Linecode=Line_120    
New Line.MVLateral11.302 Bus1=11_301  Bus2=11_302  Length=10   units=m Linecode=Line_120    
New Line.MVLateral11.303 Bus1=11_302  Bus2=11_303  Length=10   units=m Linecode=Line_120    
New Line.MVLateral11_end_2   Bus1=11_303  Bus2=11_304  Length=10   units=m Linecode=Line_120    
                            
New Line.MVFeeder11.305  Bus1=11_183  Bus2=11_305  Length=10   units=m Linecode=Line_240   
New Line.MVFeeder11.306  Bus1=11_305  Bus2=11_306  Length=10   units=m Linecode=Line_240   
New Line.MVFeeder11.307  Bus1=11_306  Bus2=11_307  Length=10   units=m Linecode=Line_240   
New Line.MVFeeder11.308  Bus1=11_307  Bus2=11_308  Length=10   units=m Linecode=Line_240   
New Line.MVFeeder11.309  Bus1=11_308  Bus2=11_309  Length=10   units=m Linecode=Line_240   
New Line.MVFeeder11.310  Bus1=11_309  Bus2=11_310  Length=10   units=m Linecode=Line_240   
New Line.MVFeeder11.311  Bus1=11_310  Bus2=11_311  Length=10   units=m Linecode=Line_240   
New Line.MVFeeder11.312  Bus1=11_311  Bus2=11_312  Length=10   units=m Linecode=Line_240   
New Line.MVFeeder11.313  Bus1=11_312  Bus2=11_313  Length=10   units=m Linecode=Line_240   
New Line.MVFeeder11.314  Bus1=11_313  Bus2=11_314  Length=10   units=m Linecode=Line_240   
New Line.MVFeeder11.315  Bus1=11_314  Bus2=11_315  Length=10   units=m Linecode=Line_240   
New Line.MVFeeder11.316  Bus1=11_315  Bus2=11_316  Length=10   units=m Linecode=Line_240   
New Line.MVFeeder11.317  Bus1=11_316  Bus2=11_317  Length=10   units=m Linecode=Line_240   
New Line.MVFeeder11.318  Bus1=11_317  Bus2=11_318  Length=10   units=m Linecode=Line_240   
New Line.MVFeeder11.319  Bus1=11_318  Bus2=11_319  Length=10   units=m Linecode=Line_240   
New Line.MVFeeder11.320  Bus1=11_319  Bus2=11_320  Length=10   units=m Linecode=Line_240   
New Line.MVFeeder11.321  Bus1=11_320  Bus2=11_321  Length=10   units=m Linecode=Line_240   
New Line.MVFeeder11.322  Bus1=11_321  Bus2=11_322  Length=10   units=m Linecode=Line_240   
New Line.MVFeeder11.323  Bus1=11_322  Bus2=11_323  Length=10   units=m Linecode=Line_240   
New Line.MVFeeder11.324  Bus1=11_323  Bus2=11_324  Length=10   units=m Linecode=Line_240   
New Line.MVFeeder11.325  Bus1=11_324  Bus2=11_325  Length=10   units=m Linecode=Line_240   
New Line.MVFeeder11.326  Bus1=11_325  Bus2=11_326  Length=10   units=m Linecode=Line_240   
New Line.MVFeeder11.327  Bus1=11_326  Bus2=11_327  Length=10   units=m Linecode=Line_240   
New Line.MVFeeder11.328  Bus1=11_327  Bus2=11_328  Length=10   units=m Linecode=Line_240   
New Line.MVFeeder11.329  Bus1=11_328  Bus2=11_329  Length=10   units=m Linecode=Line_240   
New Line.MVFeeder11.330  Bus1=11_329  Bus2=11_330  Length=10   units=m Linecode=Line_240   