New Line.Consumer1_1 Bus1=1_37.1 Bus2=Consumer1_1.1 Length=0.03 units=km Linecode=Line_25
New Line.Consumer1_2 Bus1=1_45.2 Bus2=Consumer1_2.1 Length=0.03 units=km Linecode=Line_25
New Line.Consumer1_3 Bus1=1_53.3 Bus2=Consumer1_3.1 Length=0.03 units=km Linecode=Line_25
New Line.Consumer1_4 Bus1=1_61.1 Bus2=Consumer1_4.1 Length=0.03 units=km Linecode=Line_25
New Line.Consumer1_5 Bus1=1_69.2 Bus2=Consumer1_5.1 Length=0.03 units=km Linecode=Line_25
New Line.Consumer1_6 Bus1=1_77.3 Bus2=Consumer1_6.1 Length=0.03 units=km Linecode=Line_25
New Line.Consumer1_7 Bus1=1_85.1 Bus2=Consumer1_7.1 Length=0.03 units=km Linecode=Line_25
New Line.Consumer1_8 Bus1=1_93.2 Bus2=Consumer1_8.1 Length=0.03 units=km Linecode=Line_25
New Line.Consumer1_9 Bus1=1_101.3 Bus2=Consumer1_9.1 Length=0.03 units=km Linecode=Line_25
New Line.Consumer1_10 Bus1=1_109.1 Bus2=Consumer1_10.1 Length=0.03 units=km Linecode=Line_25
New Line.Consumer1_11 Bus1=1_117.2 Bus2=Consumer1_11.1 Length=0.03 units=km Linecode=Line_25
New Line.Consumer1_12 Bus1=1_125.3 Bus2=Consumer1_12.1 Length=0.03 units=km Linecode=Line_25
New Line.Consumer1_13 Bus1=1_133.1 Bus2=Consumer1_13.1 Length=0.03 units=km Linecode=Line_25
New Line.Consumer1_14 Bus1=1_141.2 Bus2=Consumer1_14.1 Length=0.03 units=km Linecode=Line_25

New Line.Consumer1_15 Bus1=1_149.3 Bus2=Consumer1_15.1 Length=0.03 units=km Linecode=Line_25

New Line.Consumer1_16 Bus1=1_157.1 Bus2=Consumer1_16.1 Length=0.03 units=km Linecode=Line_25

New Line.Consumer1_17 Bus1=1_165.2 Bus2=Consumer1_17.1 Length=0.03 units=km Linecode=Line_25

New Line.Consumer1_18 Bus1=1_244.3 Bus2=Consumer1_18.1 Length=0.03 units=km Linecode=Line_25

New Line.Consumer1_19 Bus1=1_246.1 Bus2=Consumer1_19.1 Length=0.03 units=km Linecode=Line_25

New Line.Consumer1_20 Bus1=1_248.2 Bus2=Consumer1_20.1 Length=0.03 units=km Linecode=Line_25

New Line.Consumer1_21 Bus1=1_250.3 Bus2=Consumer1_21.1 Length=0.03 units=km Linecode=Line_25

New Line.Consumer1_22 Bus1=1_252.1 Bus2=Consumer1_22.1 Length=0.03 units=km Linecode=Line_25

New Line.Consumer1_23 Bus1=1_254.2 Bus2=Consumer1_23.1 Length=0.03 units=km Linecode=Line_25

New Line.Consumer1_24 Bus1=1_256.3 Bus2=Consumer1_24.1 Length=0.03 units=km Linecode=Line_25

New Line.Consumer1_25 Bus1=1_258.1 Bus2=Consumer1_25.1 Length=0.03 units=km Linecode=Line_25

New Line.Consumer1_26 Bus1=1_260.2 Bus2=Consumer1_26.1 Length=0.03 units=km Linecode=Line_25

New Line.Consumer1_27 Bus1=1_262.3 Bus2=Consumer1_27.1 Length=0.03 units=km Linecode=Line_25

New Line.Consumer1_28 Bus1=1_264.1 Bus2=Consumer1_28.1 Length=0.03 units=km Linecode=Line_25

New Line.Consumer1_29 Bus1=1_266.2 Bus2=Consumer1_29.1 Length=0.03 units=km Linecode=Line_25

New Line.Consumer1_30 Bus1=1_268.3 Bus2=Consumer1_30.1 Length=0.03 units=km Linecode=Line_25

New Line.Consumer1_31 Bus1=1_270.1 Bus2=Consumer1_31.1 Length=0.03 units=km Linecode=Line_25

New Line.Consumer1_32 Bus1=1_272.2 Bus2=Consumer1_32.1 Length=0.03 units=km Linecode=Line_25

New Line.Consumer1_33 Bus1=1_274.3 Bus2=Consumer1_33.1 Length=0.03 units=km Linecode=Line_25

New Line.Consumer1_34 Bus1=1_276.1 Bus2=Consumer1_34.1 Length=0.03 units=km Linecode=Line_25

New Line.Consumer1_35 Bus1=1_278.2 Bus2=Consumer1_35.1 Length=0.03 units=km Linecode=Line_25

New Line.Consumer1_36 Bus1=1_280.3 Bus2=Consumer1_36.1 Length=0.03 units=km Linecode=Line_25

New Line.Consumer1_37 Bus1=1_282.1 Bus2=Consumer1_37.1 Length=0.03 units=km Linecode=Line_25

New Line.Consumer1_38 Bus1=1_284.2 Bus2=Consumer1_38.1 Length=0.03 units=km Linecode=Line_25

New Line.Consumer1_39 Bus1=1_286.3 Bus2=Consumer1_39.1 Length=0.03 units=km Linecode=Line_25

New Line.Consumer1_40 Bus1=1_288.1 Bus2=Consumer1_40.1 Length=0.03 units=km Linecode=Line_25

New Line.Consumer1_41 Bus1=1_290.2 Bus2=Consumer1_41.1 Length=0.03 units=km Linecode=Line_25

New Line.Consumer1_42 Bus1=1_292.3 Bus2=Consumer1_42.1 Length=0.03 units=km Linecode=Line_25

New Line.Consumer1_43 Bus1=1_294.1 Bus2=Consumer1_43.1 Length=0.03 units=km Linecode=Line_25 

New Line.Consumer1_44 Bus1=1_296.2 Bus2=Consumer1_44.1 Length=0.03 units=km Linecode=Line_25 

New Line.Consumer1_45 Bus1=1_298.3 Bus2=Consumer1_45.1 Length=0.03 units=km Linecode=Line_25 

New Line.Consumer1_46 Bus1=1_300.1 Bus2=Consumer1_46.1 Length=0.03 units=km Linecode=Line_25 

New Line.Consumer1_47 Bus1=1_304.2 Bus2=Consumer1_47.1 Length=0.03 units=km Linecode=Line_25 

New Line.Consumer1_48 Bus1=1_306.3 Bus2=Consumer1_48.1 Length=0.03 units=km Linecode=Line_25 

New Line.Consumer1_49 Bus1=1_308.1 Bus2=Consumer1_49.1 Length=0.03 units=km Linecode=Line_25 

New Line.Consumer1_50 Bus1=1_310.2 Bus2=Consumer1_50.1 Length=0.03 units=km Linecode=Line_25 
New Line.Consumer1_51 Bus1=1_312.3 Bus2=Consumer1_51.1 Length=0.03 units=km Linecode=Line_25 

New Line.Consumer1_52 Bus1=1_314.1 Bus2=Consumer1_52.1 Length=0.03 units=km Linecode=Line_25
New Line.Consumer1_53 Bus1=1_316.2 Bus2=Consumer1_53.1 Length=0.03 units=km Linecode=Line_25 

New Line.Consumer1_54 Bus1=1_318.3 Bus2=Consumer1_54.1 Length=0.03 units=km Linecode=Line_25
New Line.Consumer1_55 Bus1=1_320.1 Bus2=Consumer1_55.1 Length=0.03 units=km Linecode=Line_25 
New Line.Consumer1_56 Bus1=1_322.2 Bus2=Consumer1_56.1 Length=0.03 units=km Linecode=Line_25 

New Line.Consumer1_57 Bus1=1_324.3 Bus2=Consumer1_57.1 Length=0.03 units=km Linecode=Line_25 

New Line.Consumer1_58 Bus1=1_326.1 Bus2=Consumer1_58.1 Length=0.03 units=km Linecode=Line_25 

New Line.Consumer1_59 Bus1=1_328.2 Bus2=Consumer1_59.1 Length=0.03 units=km Linecode=Line_25 

New Line.Consumer1_60 Bus1=1_330.3 Bus2=Consumer1_60.1 Length=0.03 units=km Linecode=Line_25 

New Line.Consumer1_61 Bus1=1_332.1 Bus2=Consumer1_61.1 Length=0.03 units=km Linecode=Line_25 

New Line.Consumer1_62 Bus1=1_334.2 Bus2=Consumer1_62.1 Length=0.03 units=km Linecode=Line_25
New Line.Consumer1_63 Bus1=1_336.3 Bus2=Consumer1_63.1 Length=0.03 units=km Linecode=Line_25 
New Line.Consumer1_64 Bus1=1_338.1 Bus2=Consumer1_64.1 Length=0.03 units=km Linecode=Line_25 
New Line.Consumer1_65 Bus1=1_340.2 Bus2=Consumer1_65.1 Length=0.03 units=km Linecode=Line_25 
New Line.Consumer1_66 Bus1=1_342.3 Bus2=Consumer1_66.1 Length=0.03 units=km Linecode=Line_25 
New Line.Consumer1_67 Bus1=1_344.1 Bus2=Consumer1_67.1 Length=0.03 units=km Linecode=Line_25 
New Line.Consumer1_68 Bus1=1_346.2 Bus2=Consumer1_68.1 Length=0.03 units=km Linecode=Line_25 
New Line.Consumer1_69 Bus1=1_348.3 Bus2=Consumer1_69.1 Length=0.03 units=km Linecode=Line_25 
New Line.Consumer1_70 Bus1=1_350.1 Bus2=Consumer1_70.1 Length=0.03 units=km Linecode=Line_25


New Line.Consumer1_71 Bus1=1_451.2 Bus2=Consumer1_71.1 Length=0.03 units=km Linecode=Line_25

New Line.Consumer1_72 Bus1=1_454.3 Bus2=Consumer1_72.1 Length=0.03 units=km Linecode=Line_25

New Line.Consumer1_73 Bus1=1_457.1 Bus2=Consumer1_73.1 Length=0.03 units=km Linecode=Line_25

New Line.Consumer1_74 Bus1=1_460.2 Bus2=Consumer1_74.1 Length=0.03 units=km Linecode=Line_25
New Line.Consumer1_75 Bus1=1_463.3 Bus2=Consumer1_75.1 Length=0.03 units=km Linecode=Line_25

New Line.Consumer1_76 Bus1=1_466.1 Bus2=Consumer1_76.1 Length=0.03 units=km Linecode=Line_25

New Line.Consumer1_77 Bus1=1_469.2 Bus2=Consumer1_77.1 Length=0.03 units=km Linecode=Line_25

New Line.Consumer1_78 Bus1=1_472.3 Bus2=Consumer1_78.1 Length=0.03 units=km Linecode=Line_25

New Line.Consumer1_79 Bus1=1_475.1 Bus2=Consumer1_79.1 Length=0.03 units=km Linecode=Line_25
New Line.Consumer1_80 Bus1=1_478.2 Bus2=Consumer1_80.1 Length=0.03 units=km Linecode=Line_25 

New Line.Consumer1_81 Bus1=1_481.3 Bus2=Consumer1_81.1 Length=0.03 units=km Linecode=Line_25 

New Line.Consumer1_82 Bus1=1_484.1 Bus2=Consumer1_82.1 Length=0.03 units=km Linecode=Line_25 

New Line.Consumer1_83 Bus1=1_487.2 Bus2=Consumer1_83.1 Length=0.03 units=km Linecode=Line_25 

New Line.Consumer1_84 Bus1=1_490.3 Bus2=Consumer1_84.1 Length=0.03 units=km Linecode=Line_25 

New Line.Consumer1_85 Bus1=1_493.1 Bus2=Consumer1_85.1 Length=0.03 units=km Linecode=Line_25 

New Line.Consumer1_86 Bus1=1_496.2 Bus2=Consumer1_86.1 Length=0.03 units=km Linecode=Line_25

New Line.Consumer1_87 Bus1=1_499.3 Bus2=Consumer1_87.1 Length=0.03 units=km Linecode=Line_25 

New Line.Consumer1_88 Bus1=1_502.1 Bus2=Consumer1_88.1 Length=0.03 units=km Linecode=Line_25 
New Line.Consumer1_89 Bus1=1_505.2 Bus2=Consumer1_89.1 Length=0.03 units=km Linecode=Line_25
New Line.Consumer1_90 Bus1=1_508.3 Bus2=Consumer1_90.1 Length=0.03 units=km Linecode=Line_25 

New Line.Consumer1_91 Bus1=1_511.1 Bus2=Consumer1_91.1 Length=0.03 units=km Linecode=Line_25 

New Line.Consumer1_92 Bus1=1_514.2 Bus2=Consumer1_92.1 Length=0.03 units=km Linecode=Line_25 

New Line.Consumer1_93 Bus1=1_517.3 Bus2=Consumer1_93.1 Length=0.03 units=km Linecode=Line_25 

New Line.Consumer1_94 Bus1=1_520.1 Bus2=Consumer1_94.1 Length=0.03 units=km Linecode=Line_25 

New Line.Consumer1_95 Bus1=1_523.2 Bus2=Consumer1_95.1 Length=0.03 units=km Linecode=Line_25 

New Line.Consumer1_96 Bus1=1_526.3 Bus2=Consumer1_96.1 Length=0.03 units=km Linecode=Line_25 

New Line.Consumer1_97 Bus1=1_529.1 Bus2=Consumer1_97.1 Length=0.03 units=km Linecode=Line_25 

New Line.Consumer1_98 Bus1=1_532.2 Bus2=Consumer1_98.1 Length=0.03 units=km Linecode=Line_25 

New Line.Consumer1_99 Bus1=1_535.3 Bus2=Consumer1_99.1 Length=0.03 units=km Linecode=Line_25 

New Line.Consumer1_100 Bus1=1_538.1 Bus2=Consumer1_100.1 Length=0.03 units=km Linecode=Line_25

New Line.Consumer1_101 Bus1=1_541.1 Bus2=Consumer1_101.1 Length=0.03 units=km Linecode=Line_25 

New Line.Consumer1_102 Bus1=1_544.2 Bus2=Consumer1_102.1 Length=0.03 units=km Linecode=Line_25

New Line.Consumer1_103 Bus1=1_547.3 Bus2=Consumer1_103.1 Length=0.03 units=km Linecode=Line_25 

New Line.Consumer1_104 Bus1=1_550.1 Bus2=Consumer1_104.1 Length=0.03 units=km Linecode=Line_25 
New Line.Consumer1_105 Bus1=1_553.2 Bus2=Consumer1_105.1 Length=0.03 units=km Linecode=Line_25
New Line.Consumer1_106 Bus1=1_556.3 Bus2=Consumer1_106.1 Length=0.03 units=km Linecode=Line_25 

New Line.Consumer1_107 Bus1=1_559.1 Bus2=Consumer1_107.1 Length=0.03 units=km Linecode=Line_25 

New Line.Consumer1_108 Bus1=1_562.2 Bus2=Consumer1_108.1 Length=0.03 units=km Linecode=Line_25 

New Line.Consumer1_109 Bus1=1_565.3 Bus2=Consumer1_109.1 Length=0.03 units=km Linecode=Line_25 

New Line.Consumer1_110 Bus1=1_568.1 Bus2=Consumer1_110.1 Length=0.03 units=km Linecode=Line_25 

New Line.Consumer1_111 Bus1=1_571.2 Bus2=Consumer1_111.1 Length=0.03 units=km Linecode=Line_25 

New Line.Consumer1_112 Bus1=1_574.3 Bus2=Consumer1_112.1 Length=0.03 units=km Linecode=Line_25 

New Line.Consumer1_113 Bus1=1_577.1 Bus2=Consumer1_113.1 Length=0.03 units=km Linecode=Line_25 

New Line.Consumer1_114 Bus1=1_580.2 Bus2=Consumer1_114.1 Length=0.03 units=km Linecode=Line_25 



New Line.Consumer1_115 Bus1=1_588.2 Bus2=Consumer1_115.1 Length=0.03 units=km Linecode=Line_25
New Line.Consumer1_116 Bus1=1_591.3 Bus2=Consumer1_116.1 Length=0.03 units=km Linecode=Line_25 

New Line.Consumer1_117 Bus1=1_594.1 Bus2=Consumer1_117.1 Length=0.03 units=km Linecode=Line_25 
New Line.Consumer1_118 Bus1=1_597.2 Bus2=Consumer1_118.1 Length=0.03 units=km Linecode=Line_25 

New Line.Consumer1_119 Bus1=1_600.3 Bus2=Consumer1_119.1 Length=0.03 units=km Linecode=Line_25 

New Line.Consumer1_120 Bus1=1_603.1 Bus2=Consumer1_120.1 Length=0.03 units=km Linecode=Line_25 

New Line.Consumer1_121 Bus1=1_606.2 Bus2=Consumer1_121.1 Length=0.03 units=km Linecode=Line_25 

New Line.Consumer1_122 Bus1=1_609.3 Bus2=Consumer1_122.1 Length=0.03 units=km Linecode=Line_25 

New Line.Consumer1_123 Bus1=1_612.1 Bus2=Consumer1_123.1 Length=0.03 units=km Linecode=Line_25 

New Line.Consumer1_124 Bus1=1_615.2 Bus2=Consumer1_124.1 Length=0.03 units=km Linecode=Line_25

New Line.Consumer1_125 Bus1=1_618.2 Bus2=Consumer1_125.1 Length=0.03 units=km Linecode=Line_25
New Line.Consumer1_126 Bus1=1_621.3 Bus2=Consumer1_126.1 Length=0.03 units=km Linecode=Line_25 
New Line.Consumer1_127 Bus1=1_624.1 Bus2=Consumer1_127.1 Length=0.03 units=km Linecode=Line_25 
New Line.Consumer1_128 Bus1=1_627.2 Bus2=Consumer1_128.1 Length=0.03 units=km Linecode=Line_25 

New Line.Consumer1_129 Bus1=1_630.3 Bus2=Consumer1_129.1 Length=0.03 units=km Linecode=Line_25 

New Line.Consumer1_130 Bus1=1_633.1 Bus2=Consumer1_130.1 Length=0.03 units=km Linecode=Line_25 

New Line.Consumer1_131 Bus1=1_636.2 Bus2=Consumer1_131.1 Length=0.03 units=km Linecode=Line_25 

New Line.Consumer1_132 Bus1=1_639.3 Bus2=Consumer1_132.1 Length=0.03 units=km Linecode=Line_25 

New Line.Consumer1_133 Bus1=1_642.1 Bus2=Consumer1_133.1 Length=0.03 units=km Linecode=Line_25 

New Line.Consumer1_134 Bus1=1_645.2 Bus2=Consumer1_134.1 Length=0.03 units=km Linecode=Line_25  

New Line.Consumer1_135 Bus1=1_648.2 Bus2=Consumer1_135.1 Length=0.03 units=km Linecode=Line_25
New Line.Consumer1_136 Bus1=1_651.3 Bus2=Consumer1_136.1 Length=0.03 units=km Linecode=Line_25 

New Line.Consumer1_137 Bus1=1_654.1 Bus2=Consumer1_137.1 Length=0.03 units=km Linecode=Line_25
New Line.Consumer1_138 Bus1=1_657.2 Bus2=Consumer1_138.1 Length=0.03 units=km Linecode=Line_25 

New Line.Consumer1_139 Bus1=1_660.3 Bus2=Consumer1_139.1 Length=0.03 units=km Linecode=Line_25 

New Line.Consumer1_140 Bus1=1_663.1 Bus2=Consumer1_140.1 Length=0.03 units=km Linecode=Line_25 

New Line.Consumer1_141 Bus1=1_666.2 Bus2=Consumer1_141.1 Length=0.03 units=km Linecode=Line_25 

New Line.Consumer1_142 Bus1=1_669.3 Bus2=Consumer1_142.1 Length=0.03 units=km Linecode=Line_25 

New Line.Consumer1_143 Bus1=1_672.1 Bus2=Consumer1_143.1 Length=0.03 units=km Linecode=Line_25

New Line.Consumer1_144 Bus1=1_675.2 Bus2=Consumer1_144.1 Length=0.03 units=km Linecode=Line_25 

New Line.Consumer1_145 Bus1=1_678.2 Bus2=Consumer1_145.1 Length=0.03 units=km Linecode=Line_25
New Line.Consumer1_146 Bus1=1_681.3 Bus2=Consumer1_146.1 Length=0.03 units=km Linecode=Line_25 

New Line.Consumer1_147 Bus1=1_684.1 Bus2=Consumer1_147.1 Length=0.03 units=km Linecode=Line_25 
New Line.Consumer1_148 Bus1=1_687.2 Bus2=Consumer1_148.1 Length=0.03 units=km Linecode=Line_25 

New Line.Consumer1_149 Bus1=1_690.3 Bus2=Consumer1_149.1 Length=0.03 units=km Linecode=Line_25 

New Line.Consumer1_150 Bus1=1_693.1 Bus2=Consumer1_150.1 Length=0.03 units=km Linecode=Line_25 

New Line.Consumer1_151 Bus1=1_696.2 Bus2=Consumer1_151.1 Length=0.03 units=km Linecode=Line_25

New Line.Consumer1_152 Bus1=1_699.3 Bus2=Consumer1_152.1 Length=0.03 units=km Linecode=Line_25 

New Line.Consumer1_153 Bus1=1_702.1 Bus2=Consumer1_153.1 Length=0.03 units=km Linecode=Line_25 

New Line.Consumer1_154 Bus1=1_705.2 Bus2=Consumer1_154.1 Length=0.03 units=km Linecode=Line_25

New Line.Consumer1_155 Bus1=1_708.2 Bus2=Consumer1_155.1 Length=0.03 units=km Linecode=Line_25
New Line.Consumer1_156 Bus1=1_711.3 Bus2=Consumer1_156.1 Length=0.03 units=km Linecode=Line_25 

New Line.Consumer1_157 Bus1=1_714.1 Bus2=Consumer1_157.1 Length=0.03 units=km Linecode=Line_25 
New Line.Consumer1_158 Bus1=1_717.2 Bus2=Consumer1_158.1 Length=0.03 units=km Linecode=Line_25 
