New Line.MVFeeder5.1    Bus1=Main_Busbar    Bus2=5_1    Length=10   units=m Linecode=Line_240   
New Line.MVFeeder5.2    Bus1=5_1    Bus2=5_2    Length=10   units=m Linecode=Line_240   
New Line.MVFeeder5.3    Bus1=5_2    Bus2=5_3    Length=10   units=m Linecode=Line_240   
New Line.MVFeeder5.4    Bus1=5_3    Bus2=5_4    Length=10   units=m Linecode=Line_240   
New Line.MVFeeder5.5    Bus1=5_4    Bus2=5_5    Length=10   units=m Linecode=Line_240   
New Line.MVFeeder5.6    Bus1=5_5    Bus2=5_6    Length=10   units=m Linecode=Line_240   
New Line.MVFeeder5.7    Bus1=5_6    Bus2=5_7    Length=10   units=m Linecode=Line_240   
New Line.MVFeeder5.8    Bus1=5_7    Bus2=5_8    Length=10   units=m Linecode=Line_240   
New Line.MVFeeder5.9    Bus1=5_8    Bus2=5_9    Length=10   units=m Linecode=Line_240   
New Line.MVFeeder5.10   Bus1=5_9    Bus2=5_10   Length=10   units=m Linecode=Line_240   
New Line.MVFeeder5.11   Bus1=5_10   Bus2=5_11   Length=10   units=m Linecode=Line_240   
New Line.MVFeeder5.12   Bus1=5_11   Bus2=5_12   Length=10   units=m Linecode=Line_240   
New Line.MVFeeder5.13   Bus1=5_12   Bus2=5_13   Length=10   units=m Linecode=Line_240   
New Line.MVFeeder5.14   Bus1=5_13   Bus2=5_14   Length=10   units=m Linecode=Line_240   
New Line.MVFeeder5.15   Bus1=5_14   Bus2=5_15   Length=10   units=m Linecode=Line_240   
New Line.MVFeeder5.16   Bus1=5_15   Bus2=5_16   Length=10   units=m Linecode=Line_240   
New Line.MVFeeder5.17   Bus1=5_16   Bus2=5_17   Length=10   units=m Linecode=Line_240   
New Line.MVFeeder5.18   Bus1=5_17   Bus2=5_18   Length=10   units=m Linecode=Line_240   
New Line.MVFeeder5.19   Bus1=5_18   Bus2=5_19   Length=10   units=m Linecode=Line_240   
New Line.MVFeeder5.20   Bus1=5_19   Bus2=5_20   Length=10   units=m Linecode=Line_240   
New Line.MVFeeder5.21   Bus1=5_20   Bus2=5_21   Length=10   units=m Linecode=Line_240   
                            
                            
New Line.MVLateral5_start_1 Bus1=5_20   Bus2=5_22   Length=10   units=m Linecode=Line_120    
New Line.MVLateral5.23  Bus1=5_22   Bus2=5_23   Length=10   units=m Linecode=Line_120    
New Line.MVLateral5.24  Bus1=5_23   Bus2=5_24   Length=10   units=m Linecode=Line_120    
New Line.MVLateral5.25  Bus1=5_24   Bus2=5_25   Length=10   units=m Linecode=Line_120    
New Line.MVLateral5.26  Bus1=5_25   Bus2=5_26   Length=10   units=m Linecode=Line_120    
New Line.MVLateral5.27  Bus1=5_26   Bus2=5_27   Length=10   units=m Linecode=Line_120    
New Line.MVLateral5.28  Bus1=5_27   Bus2=5_28   Length=10   units=m Linecode=Line_120    
New Line.MVLateral5.29  Bus1=5_28   Bus2=5_29   Length=10   units=m Linecode=Line_120    
New Line.MVLateral5.30  Bus1=5_29   Bus2=5_30   Length=10   units=m Linecode=Line_120    
New Line.MVLateral5.31  Bus1=5_30   Bus2=5_31   Length=10   units=m Linecode=Line_120    
New Line.MVLateral5.32  Bus1=5_31   Bus2=5_32   Length=10   units=m Linecode=Line_120    
New Line.MVLateral5.33  Bus1=5_32   Bus2=5_33   Length=10   units=m Linecode=Line_120    
New Line.MVLateral5.34  Bus1=5_33   Bus2=5_34   Length=10   units=m Linecode=Line_120    
New Line.MVLateral5.35  Bus1=5_34   Bus2=5_35   Length=10   units=m Linecode=Line_120    
New Line.MVLateral5.36  Bus1=5_35   Bus2=5_36   Length=10   units=m Linecode=Line_120    
New Line.MVLateral5.37  Bus1=5_36   Bus2=5_37   Length=10   units=m Linecode=Line_120    
New Line.MVLateral5.38  Bus1=5_37   Bus2=5_38   Length=10   units=m Linecode=Line_120    
New Line.MVLateral5.39  Bus1=5_38   Bus2=5_39   Length=10   units=m Linecode=Line_120    
New Line.MVLateral5.40  Bus1=5_39   Bus2=5_40   Length=10   units=m Linecode=Line_120    
New Line.MVLateral5.41  Bus1=5_40   Bus2=5_41   Length=10   units=m Linecode=Line_120    
New Line.MVLateral5.42  Bus1=5_41   Bus2=5_42   Length=10   units=m Linecode=Line_120    
New Line.MVLateral5.43  Bus1=5_42   Bus2=5_43   Length=10   units=m Linecode=Line_120    
New Line.MVLateral5.44  Bus1=5_43   Bus2=5_44   Length=10   units=m Linecode=Line_120    
New Line.MVLateral5.45  Bus1=5_44   Bus2=5_45   Length=10   units=m Linecode=Line_120    
New Line.MVLateral5.46  Bus1=5_45   Bus2=5_46   Length=10   units=m Linecode=Line_120    
New Line.MVLateral5.47  Bus1=5_46   Bus2=5_47   Length=10   units=m Linecode=Line_120    
New Line.MVLateral5.48  Bus1=5_47   Bus2=5_48   Length=10   units=m Linecode=Line_120    
New Line.MVLateral5.49  Bus1=5_48   Bus2=5_49   Length=10   units=m Linecode=Line_120    
New Line.MVLateral5.50  Bus1=5_49   Bus2=5_50   Length=10   units=m Linecode=Line_120    
New Line.MVLateral5.51  Bus1=5_50   Bus2=5_51   Length=10   units=m Linecode=Line_120    
New Line.MVLateral5.52  Bus1=5_51   Bus2=5_52   Length=10   units=m Linecode=Line_120    
New Line.MVLateral5.53  Bus1=5_52   Bus2=5_53   Length=10   units=m Linecode=Line_120    
New Line.MVLateral5.54  Bus1=5_53   Bus2=5_54   Length=10   units=m Linecode=Line_120    
New Line.MVLateral5.55  Bus1=5_54   Bus2=5_55   Length=10   units=m Linecode=Line_120    
New Line.MVLateral5.56  Bus1=5_55   Bus2=5_56   Length=10   units=m Linecode=Line_120    
New Line.MVLateral5.57  Bus1=5_56   Bus2=5_57   Length=10   units=m Linecode=Line_120    
New Line.MVLateral5.58  Bus1=5_57   Bus2=5_58   Length=10   units=m Linecode=Line_120    
New Line.MVLateral5.59  Bus1=5_58   Bus2=5_59   Length=10   units=m Linecode=Line_120    
New Line.MVLateral5.60  Bus1=5_59   Bus2=5_60   Length=10   units=m Linecode=Line_120    
New Line.MVLateral5.61  Bus1=5_60   Bus2=5_61   Length=10   units=m Linecode=Line_120    
New Line.MVLateral5.62  Bus1=5_61   Bus2=5_62   Length=10   units=m Linecode=Line_120    
New Line.MVLateral5.63  Bus1=5_62   Bus2=5_63   Length=10   units=m Linecode=Line_120    
New Line.MVLateral5.64  Bus1=5_63   Bus2=5_64   Length=10   units=m Linecode=Line_120    
New Line.MVLateral5.65  Bus1=5_64   Bus2=5_65   Length=10   units=m Linecode=Line_120    
New Line.MVLateral5.66  Bus1=5_65   Bus2=5_66   Length=10   units=m Linecode=Line_120    
New Line.MVLateral5.67  Bus1=5_66   Bus2=5_67   Length=10   units=m Linecode=Line_120    
New Line.MVLateral5.68  Bus1=5_67   Bus2=5_68   Length=10   units=m Linecode=Line_120    
New Line.MVLateral5.69  Bus1=5_68   Bus2=5_69   Length=10   units=m Linecode=Line_120    
New Line.MVLateral5.70  Bus1=5_69   Bus2=5_70   Length=10   units=m Linecode=Line_120    
New Line.MVLateral5.71  Bus1=5_70   Bus2=5_71   Length=10   units=m Linecode=Line_120    
New Line.MVLateral5.72  Bus1=5_71   Bus2=5_72   Length=10   units=m Linecode=Line_120    
New Line.MVLateral5.73  Bus1=5_72   Bus2=5_73   Length=10   units=m Linecode=Line_120    
New Line.MVLateral5.74  Bus1=5_73   Bus2=5_74   Length=10   units=m Linecode=Line_120    
New Line.MVLateral5.75  Bus1=5_74   Bus2=5_75   Length=10   units=m Linecode=Line_120    
                            
New Line.MVLateral5.86  Bus1=5_85   Bus2=5_86   Length=10   units=m Linecode=Line_120    
New Line.MVLateral5.87  Bus1=5_86   Bus2=5_87   Length=10   units=m Linecode=Line_120    
New Line.MVLateral5.88  Bus1=5_87   Bus2=5_88   Length=10   units=m Linecode=Line_120    
New Line.MVLateral5.89  Bus1=5_88   Bus2=5_89   Length=10   units=m Linecode=Line_120    
New Line.MVLateral5.90  Bus1=5_89   Bus2=5_90   Length=10   units=m Linecode=Line_120    
New Line.MVLateral5.91  Bus1=5_90   Bus2=5_91   Length=10   units=m Linecode=Line_120    
New Line.MVLateral5.92  Bus1=5_91   Bus2=5_92   Length=10   units=m Linecode=Line_120    
New Line.MVLateral5.93  Bus1=5_92   Bus2=5_93   Length=10   units=m Linecode=Line_120    
New Line.MVLateral5.94  Bus1=5_93   Bus2=5_94   Length=10   units=m Linecode=Line_120    
New Line.MVLateral5.95  Bus1=5_94   Bus2=5_95   Length=10   units=m Linecode=Line_120    
New Line.MVLateral5.96  Bus1=5_95   Bus2=5_96   Length=10   units=m Linecode=Line_120    
New Line.MVLateral5.97  Bus1=5_96   Bus2=5_97   Length=10   units=m Linecode=Line_120    
New Line.MVLateral5.98  Bus1=5_97   Bus2=5_98   Length=10   units=m Linecode=Line_120    
New Line.MVLateral5.99  Bus1=5_98   Bus2=5_99   Length=10   units=m Linecode=Line_120    
New Line.MVLateral5.100 Bus1=5_99   Bus2=5_100  Length=10   units=m Linecode=Line_120    
New Line.MVLateral5.101 Bus1=5_100  Bus2=5_101  Length=10   units=m Linecode=Line_120    
New Line.MVLateral5.102 Bus1=5_101  Bus2=5_102  Length=10   units=m Linecode=Line_120    
New Line.MVLateral5.103 Bus1=5_102  Bus2=5_103  Length=10   units=m Linecode=Line_120    
New Line.MVLateral5.104 Bus1=5_103  Bus2=5_104  Length=10   units=m Linecode=Line_120    
New Line.MVLateral5.105 Bus1=5_104  Bus2=5_105  Length=10   units=m Linecode=Line_120    
New Line.MVLateral5.106 Bus1=5_105  Bus2=5_106  Length=10   units=m Linecode=Line_120    
New Line.MVLateral5.107 Bus1=5_106  Bus2=5_107  Length=10   units=m Linecode=Line_120    
New Line.MVLateral5.108 Bus1=5_107  Bus2=5_108  Length=10   units=m Linecode=Line_120    
New Line.MVLateral5.109 Bus1=5_108  Bus2=5_109  Length=10   units=m Linecode=Line_120    
New Line.MVLateral5.110 Bus1=5_109  Bus2=5_110  Length=10   units=m Linecode=Line_120    
New Line.MVLateral5.111 Bus1=5_110  Bus2=5_111  Length=10   units=m Linecode=Line_120    
New Line.MVLateral5.112 Bus1=5_111  Bus2=5_112  Length=10   units=m Linecode=Line_120    
New Line.MVLateral5.113 Bus1=5_112  Bus2=5_113  Length=10   units=m Linecode=Line_120    
New Line.MVLateral5.114 Bus1=5_113  Bus2=5_114  Length=10   units=m Linecode=Line_120    
New Line.MVLateral5.115 Bus1=5_114  Bus2=5_115  Length=10   units=m Linecode=Line_120    
New Line.MVLateral5.116 Bus1=5_115  Bus2=5_116  Length=10   units=m Linecode=Line_120    
New Line.MVLateral5.117 Bus1=5_116  Bus2=5_117  Length=10   units=m Linecode=Line_120    
New Line.MVLateral5.118 Bus1=5_117  Bus2=5_118  Length=10   units=m Linecode=Line_120    
New Line.MVLateral5.119 Bus1=5_118  Bus2=5_119  Length=10   units=m Linecode=Line_120    
New Line.MVLateral5.120 Bus1=5_119  Bus2=5_120  Length=10   units=m Linecode=Line_120    
New Line.MVLateral5.121 Bus1=5_120  Bus2=5_121  Length=10   units=m Linecode=Line_120    
New Line.MVLateral5.122 Bus1=5_121  Bus2=5_122  Length=10   units=m Linecode=Line_120    
                            
New Line.MVLateral5.123 Bus1=5_122  Bus2=5_123  Length=10   units=m Linecode=Line_120    
New Line.MVLateral5.124 Bus1=5_123  Bus2=5_124  Length=10   units=m Linecode=Line_120    
New Line.MVLateral5.125 Bus1=5_124  Bus2=5_125  Length=10   units=m Linecode=Line_120    
New Line.MVLateral5.126 Bus1=5_125  Bus2=5_126  Length=10   units=m Linecode=Line_120    
New Line.MVLateral5.127 Bus1=5_126  Bus2=5_127  Length=10   units=m Linecode=Line_120    
New Line.MVLateral5.128 Bus1=5_127  Bus2=5_128  Length=10   units=m Linecode=Line_120    
New Line.MVLateral5.129 Bus1=5_128  Bus2=5_129  Length=10   units=m Linecode=Line_120    
New Line.MVLateral5.130 Bus1=5_129  Bus2=5_130  Length=10   units=m Linecode=Line_120    
                            
New Line.MVLateral5.131 Bus1=5_130  Bus2=5_131  Length=10   units=m Linecode=Line_120    
New Line.MVLateral5.132 Bus1=5_131  Bus2=5_132  Length=10   units=m Linecode=Line_120    
New Line.MVLateral5.133 Bus1=5_132  Bus2=5_133  Length=10   units=m Linecode=Line_120    
New Line.MVLateral5.134 Bus1=5_133  Bus2=5_134  Length=10   units=m Linecode=Line_120    
New Line.MVLateral5.135 Bus1=5_134  Bus2=5_135  Length=10   units=m Linecode=Line_120    
New Line.MVLateral5.136 Bus1=5_135  Bus2=5_136  Length=10   units=m Linecode=Line_120    
New Line.MVLateral5.137 Bus1=5_136  Bus2=5_137  Length=10   units=m Linecode=Line_120    
New Line.MVLateral5.138 Bus1=5_137  Bus2=5_138  Length=10   units=m Linecode=Line_120    
New Line.MVLateral5.139 Bus1=5_138  Bus2=5_139  Length=10   units=m Linecode=Line_120    
New Line.MVLateral5.140 Bus1=5_139  Bus2=5_140  Length=10   units=m Linecode=Line_120    
New Line.MVLateral5.141 Bus1=5_140  Bus2=5_141  Length=10   units=m Linecode=Line_120    
New Line.MVLateral5_end_1   Bus1=5_141  Bus2=5_142  Length=10   units=m Linecode=Line_120    
                            
New Line.MVFeeder5.143  Bus1=5_21   Bus2=5_143  Length=10   units=m Linecode=Line_240   
New Line.MVFeeder5.144  Bus1=5_143  Bus2=5_144  Length=10   units=m Linecode=Line_240   
New Line.MVFeeder5.145  Bus1=5_144  Bus2=5_145  Length=10   units=m Linecode=Line_240   
New Line.MVFeeder5.146  Bus1=5_145  Bus2=5_146  Length=10   units=m Linecode=Line_240   
New Line.MVFeeder5.147  Bus1=5_146  Bus2=5_147  Length=10   units=m Linecode=Line_240   
New Line.MVFeeder5.148  Bus1=5_147  Bus2=5_148  Length=10   units=m Linecode=Line_240   
New Line.MVFeeder5.149  Bus1=5_148  Bus2=5_149  Length=10   units=m Linecode=Line_240   
New Line.MVFeeder5.150  Bus1=5_149  Bus2=5_150  Length=10   units=m Linecode=Line_240   
New Line.MVFeeder5.151  Bus1=5_150  Bus2=5_151  Length=10   units=m Linecode=Line_240   
New Line.MVFeeder5.152  Bus1=5_151  Bus2=5_152  Length=10   units=m Linecode=Line_240   
New Line.MVFeeder5.153  Bus1=5_152  Bus2=5_153  Length=10   units=m Linecode=Line_240   
New Line.MVFeeder5.154  Bus1=5_153  Bus2=5_154  Length=10   units=m Linecode=Line_240   
New Line.MVFeeder5.155  Bus1=5_154  Bus2=5_155  Length=10   units=m Linecode=Line_240   
New Line.MVFeeder5.156  Bus1=5_155  Bus2=5_156  Length=10   units=m Linecode=Line_240   
New Line.MVFeeder5.157  Bus1=5_156  Bus2=5_157  Length=10   units=m Linecode=Line_240   
New Line.MVFeeder5.158  Bus1=5_157  Bus2=5_158  Length=10   units=m Linecode=Line_240   
New Line.MVFeeder5.159  Bus1=5_158  Bus2=5_159  Length=10   units=m Linecode=Line_240   
New Line.MVFeeder5.160  Bus1=5_159  Bus2=5_160  Length=10   units=m Linecode=Line_240   
New Line.MVFeeder5.161  Bus1=5_160  Bus2=5_161  Length=10   units=m Linecode=Line_240   
New Line.MVFeeder5.162  Bus1=5_161  Bus2=5_162  Length=10   units=m Linecode=Line_240   
New Line.MVFeeder5.163  Bus1=5_162  Bus2=5_163  Length=10   units=m Linecode=Line_240   
New Line.MVFeeder5.164  Bus1=5_163  Bus2=5_164  Length=10   units=m Linecode=Line_240   
New Line.MVFeeder5.165  Bus1=5_164  Bus2=5_165  Length=10   units=m Linecode=Line_240   
New Line.MVFeeder5.166  Bus1=5_165  Bus2=5_166  Length=10   units=m Linecode=Line_240   
New Line.MVFeeder5.167  Bus1=5_166  Bus2=5_167  Length=10   units=m Linecode=Line_240   
New Line.MVFeeder5.168  Bus1=5_167  Bus2=5_168  Length=10   units=m Linecode=Line_240   
New Line.MVFeeder5.169  Bus1=5_168  Bus2=5_169  Length=10   units=m Linecode=Line_240   
New Line.MVFeeder5.170  Bus1=5_169  Bus2=5_170  Length=10   units=m Linecode=Line_240   
New Line.MVFeeder5.171  Bus1=5_170  Bus2=5_171  Length=10   units=m Linecode=Line_240   
New Line.MVFeeder5.172  Bus1=5_171  Bus2=5_172  Length=10   units=m Linecode=Line_240   
New Line.MVFeeder5.173  Bus1=5_172  Bus2=5_173  Length=10   units=m Linecode=Line_240   
New Line.MVFeeder5.174  Bus1=5_173  Bus2=5_174  Length=10   units=m Linecode=Line_240   
New Line.MVFeeder5.175  Bus1=5_174  Bus2=5_175  Length=10   units=m Linecode=Line_240   
New Line.MVFeeder5.176  Bus1=5_175  Bus2=5_176  Length=10   units=m Linecode=Line_240   
New Line.MVFeeder5.177  Bus1=5_176  Bus2=5_177  Length=10   units=m Linecode=Line_240   
New Line.MVFeeder5.178  Bus1=5_177  Bus2=5_178  Length=10   units=m Linecode=Line_240   
New Line.MVFeeder5.179  Bus1=5_178  Bus2=5_179  Length=10   units=m Linecode=Line_240   
New Line.MVFeeder5.180  Bus1=5_179  Bus2=5_180  Length=10   units=m Linecode=Line_240   
New Line.MVFeeder5.181  Bus1=5_180  Bus2=5_181  Length=10   units=m Linecode=Line_240   
New Line.MVFeeder5.182  Bus1=5_181  Bus2=5_182  Length=10   units=m Linecode=Line_240   
New Line.MVFeeder5.183  Bus1=5_182  Bus2=5_183  Length=10   units=m Linecode=Line_240   
                            
New Line.MVLateral5_start_2 Bus1=5_182  Bus2=5_184  Length=10   units=m Linecode=Line_120    
New Line.MVLateral5.185 Bus1=5_184  Bus2=5_185  Length=10   units=m Linecode=Line_120    
New Line.MVLateral5.186 Bus1=5_185  Bus2=5_186  Length=10   units=m Linecode=Line_120    
New Line.MVLateral5.187 Bus1=5_186  Bus2=5_187  Length=10   units=m Linecode=Line_120    
New Line.MVLateral5.188 Bus1=5_187  Bus2=5_188  Length=10   units=m Linecode=Line_120    
New Line.MVLateral5.189 Bus1=5_188  Bus2=5_189  Length=10   units=m Linecode=Line_120    
New Line.MVLateral5.190 Bus1=5_189  Bus2=5_190  Length=10   units=m Linecode=Line_120    
New Line.MVLateral5.191 Bus1=5_190  Bus2=5_191  Length=10   units=m Linecode=Line_120    
New Line.MVLateral5.192 Bus1=5_191  Bus2=5_192  Length=10   units=m Linecode=Line_120    
New Line.MVLateral5.193 Bus1=5_192  Bus2=5_193  Length=10   units=m Linecode=Line_120    
New Line.MVLateral5.194 Bus1=5_193  Bus2=5_194  Length=10   units=m Linecode=Line_120    
New Line.MVLateral5.195 Bus1=5_194  Bus2=5_195  Length=10   units=m Linecode=Line_120    
New Line.MVLateral5.196 Bus1=5_195  Bus2=5_196  Length=10   units=m Linecode=Line_120    
New Line.MVLateral5.197 Bus1=5_196  Bus2=5_197  Length=10   units=m Linecode=Line_120    
New Line.MVLateral5.198 Bus1=5_197  Bus2=5_198  Length=10   units=m Linecode=Line_120    
New Line.MVLateral5.199 Bus1=5_198  Bus2=5_199  Length=10   units=m Linecode=Line_120    
New Line.MVLateral5.200 Bus1=5_199  Bus2=5_200  Length=10   units=m Linecode=Line_120    
New Line.MVLateral5.201 Bus1=5_200  Bus2=5_201  Length=10   units=m Linecode=Line_120    
New Line.MVLateral5.202 Bus1=5_201  Bus2=5_202  Length=10   units=m Linecode=Line_120    
New Line.MVLateral5.203 Bus1=5_202  Bus2=5_203  Length=10   units=m Linecode=Line_120    
New Line.MVLateral5.204 Bus1=5_203  Bus2=5_204  Length=10   units=m Linecode=Line_120    
New Line.MVLateral5.205 Bus1=5_204  Bus2=5_205  Length=10   units=m Linecode=Line_120    
New Line.MVLateral5.206 Bus1=5_205  Bus2=5_206  Length=10   units=m Linecode=Line_120    
New Line.MVLateral5.207 Bus1=5_206  Bus2=5_207  Length=10   units=m Linecode=Line_120    
New Line.MVLateral5.208 Bus1=5_207  Bus2=5_208  Length=10   units=m Linecode=Line_120    
New Line.MVLateral5.209 Bus1=5_208  Bus2=5_209  Length=10   units=m Linecode=Line_120    
New Line.MVLateral5.210 Bus1=5_209  Bus2=5_210  Length=10   units=m Linecode=Line_120    
New Line.MVLateral5.211 Bus1=5_210  Bus2=5_211  Length=10   units=m Linecode=Line_120    
New Line.MVLateral5.212 Bus1=5_211  Bus2=5_212  Length=10   units=m Linecode=Line_120    
New Line.MVLateral5.213 Bus1=5_212  Bus2=5_213  Length=10   units=m Linecode=Line_120    
New Line.MVLateral5.214 Bus1=5_213  Bus2=5_214  Length=10   units=m Linecode=Line_120    
New Line.MVLateral5.215 Bus1=5_214  Bus2=5_215  Length=10   units=m Linecode=Line_120    
New Line.MVLateral5.216 Bus1=5_215  Bus2=5_216  Length=10   units=m Linecode=Line_120    
New Line.MVLateral5.217 Bus1=5_216  Bus2=5_217  Length=10   units=m Linecode=Line_120    
New Line.MVLateral5.218 Bus1=5_217  Bus2=5_218  Length=10   units=m Linecode=Line_120    
New Line.MVLateral5.219 Bus1=5_218  Bus2=5_219  Length=10   units=m Linecode=Line_120    
New Line.MVLateral5.220 Bus1=5_219  Bus2=5_220  Length=10   units=m Linecode=Line_120    
New Line.MVLateral5.221 Bus1=5_220  Bus2=5_221  Length=10   units=m Linecode=Line_120    
New Line.MVLateral5.222 Bus1=5_221  Bus2=5_222  Length=10   units=m Linecode=Line_120    
New Line.MVLateral5.223 Bus1=5_222  Bus2=5_223  Length=10   units=m Linecode=Line_120    
New Line.MVLateral5.224 Bus1=5_223  Bus2=5_224  Length=10   units=m Linecode=Line_120    
New Line.MVLateral5.225 Bus1=5_224  Bus2=5_225  Length=10   units=m Linecode=Line_120    
New Line.MVLateral5.226 Bus1=5_225  Bus2=5_226  Length=10   units=m Linecode=Line_120    
New Line.MVLateral5.227 Bus1=5_226  Bus2=5_227  Length=10   units=m Linecode=Line_120    
New Line.MVLateral5.228 Bus1=5_227  Bus2=5_228  Length=10   units=m Linecode=Line_120    
New Line.MVLateral5.229 Bus1=5_228  Bus2=5_229  Length=10   units=m Linecode=Line_120    
New Line.MVLateral5.230 Bus1=5_229  Bus2=5_230  Length=10   units=m Linecode=Line_120    
New Line.MVLateral5.231 Bus1=5_230  Bus2=5_231  Length=10   units=m Linecode=Line_120    
New Line.MVLateral5.232 Bus1=5_231  Bus2=5_232  Length=10   units=m Linecode=Line_120    
New Line.MVLateral5.233 Bus1=5_232  Bus2=5_233  Length=10   units=m Linecode=Line_120    
New Line.MVLateral5.234 Bus1=5_233  Bus2=5_234  Length=10   units=m Linecode=Line_120    
New Line.MVLateral5.235 Bus1=5_234  Bus2=5_235  Length=10   units=m Linecode=Line_120    
New Line.MVLateral5.236 Bus1=5_235  Bus2=5_236  Length=10   units=m Linecode=Line_120    
New Line.MVLateral5.237 Bus1=5_236  Bus2=5_237  Length=10   units=m Linecode=Line_120    
New Line.MVLateral5.238 Bus1=5_237  Bus2=5_238  Length=10   units=m Linecode=Line_120    
New Line.MVLateral5.239 Bus1=5_238  Bus2=5_239  Length=10   units=m Linecode=Line_120    
New Line.MVLateral5.240 Bus1=5_239  Bus2=5_240  Length=10   units=m Linecode=Line_120    
New Line.MVLateral5.241 Bus1=5_240  Bus2=5_241  Length=10   units=m Linecode=Line_120    
New Line.MVLateral5.242 Bus1=5_241  Bus2=5_242  Length=10   units=m Linecode=Line_120    
New Line.MVLateral5.243 Bus1=5_242  Bus2=5_243  Length=10   units=m Linecode=Line_120    
New Line.MVLateral5.244 Bus1=5_243  Bus2=5_244  Length=10   units=m Linecode=Line_120    
New Line.MVLateral5.245 Bus1=5_244  Bus2=5_245  Length=10   units=m Linecode=Line_120    
New Line.MVLateral5.246 Bus1=5_245  Bus2=5_246  Length=10   units=m Linecode=Line_120    
New Line.MVLateral5.247 Bus1=5_246  Bus2=5_247  Length=10   units=m Linecode=Line_120    
New Line.MVLateral5.248 Bus1=5_247  Bus2=5_248  Length=10   units=m Linecode=Line_120    
New Line.MVLateral5.249 Bus1=5_248  Bus2=5_249  Length=10   units=m Linecode=Line_120    
New Line.MVLateral5.250 Bus1=5_249  Bus2=5_250  Length=10   units=m Linecode=Line_120    
New Line.MVLateral5.251 Bus1=5_250  Bus2=5_251  Length=10   units=m Linecode=Line_120    
New Line.MVLateral5.252 Bus1=5_251  Bus2=5_252  Length=10   units=m Linecode=Line_120    
New Line.MVLateral5.253 Bus1=5_252  Bus2=5_253  Length=10   units=m Linecode=Line_120    
New Line.MVLateral5.254 Bus1=5_253  Bus2=5_254  Length=10   units=m Linecode=Line_120    
New Line.MVLateral5.255 Bus1=5_254  Bus2=5_255  Length=10   units=m Linecode=Line_120    
New Line.MVLateral5.256 Bus1=5_255  Bus2=5_256  Length=10   units=m Linecode=Line_120    
New Line.MVLateral5.257 Bus1=5_256  Bus2=5_257  Length=10   units=m Linecode=Line_120    
New Line.MVLateral5.258 Bus1=5_257  Bus2=5_258  Length=10   units=m Linecode=Line_120    
New Line.MVLateral5.259 Bus1=5_258  Bus2=5_259  Length=10   units=m Linecode=Line_120    
New Line.MVLateral5.260 Bus1=5_259  Bus2=5_260  Length=10   units=m Linecode=Line_120    
New Line.MVLateral5.261 Bus1=5_260  Bus2=5_261  Length=10   units=m Linecode=Line_120    
New Line.MVLateral5.262 Bus1=5_261  Bus2=5_262  Length=10   units=m Linecode=Line_120    
New Line.MVLateral5.263 Bus1=5_262  Bus2=5_263  Length=10   units=m Linecode=Line_120    
New Line.MVLateral5.264 Bus1=5_263  Bus2=5_264  Length=10   units=m Linecode=Line_120    
New Line.MVLateral5.265 Bus1=5_264  Bus2=5_265  Length=10   units=m Linecode=Line_120    
New Line.MVLateral5.266 Bus1=5_265  Bus2=5_266  Length=10   units=m Linecode=Line_120    
New Line.MVLateral5.267 Bus1=5_266  Bus2=5_267  Length=10   units=m Linecode=Line_120    
New Line.MVLateral5.268 Bus1=5_267  Bus2=5_268  Length=10   units=m Linecode=Line_120    
New Line.MVLateral5.269 Bus1=5_268  Bus2=5_269  Length=10   units=m Linecode=Line_120    
New Line.MVLateral5.270 Bus1=5_269  Bus2=5_270  Length=10   units=m Linecode=Line_120    
New Line.MVLateral5.271 Bus1=5_270  Bus2=5_271  Length=10   units=m Linecode=Line_120    
New Line.MVLateral5.272 Bus1=5_271  Bus2=5_272  Length=10   units=m Linecode=Line_120    
New Line.MVLateral5.273 Bus1=5_272  Bus2=5_273  Length=10   units=m Linecode=Line_120    
New Line.MVLateral5.274 Bus1=5_273  Bus2=5_274  Length=10   units=m Linecode=Line_120    
New Line.MVLateral5.275 Bus1=5_274  Bus2=5_275  Length=10   units=m Linecode=Line_120    
New Line.MVLateral5.276 Bus1=5_275  Bus2=5_276  Length=10   units=m Linecode=Line_120    
New Line.MVLateral5.277 Bus1=5_276  Bus2=5_277  Length=10   units=m Linecode=Line_120    
New Line.MVLateral5.278 Bus1=5_277  Bus2=5_278  Length=10   units=m Linecode=Line_120    
New Line.MVLateral5.279 Bus1=5_278  Bus2=5_279  Length=10   units=m Linecode=Line_120    
New Line.MVLateral5.280 Bus1=5_279  Bus2=5_280  Length=10   units=m Linecode=Line_120    
New Line.MVLateral5.281 Bus1=5_280  Bus2=5_281  Length=10   units=m Linecode=Line_120    
New Line.MVLateral5.282 Bus1=5_281  Bus2=5_282  Length=10   units=m Linecode=Line_120    
New Line.MVLateral5.283 Bus1=5_282  Bus2=5_283  Length=10   units=m Linecode=Line_120    
New Line.MVLateral5.284 Bus1=5_283  Bus2=5_284  Length=10   units=m Linecode=Line_120    
New Line.MVLateral5.285 Bus1=5_284  Bus2=5_285  Length=10   units=m Linecode=Line_120    
New Line.MVLateral5.286 Bus1=5_285  Bus2=5_286  Length=10   units=m Linecode=Line_120    
New Line.MVLateral5.287 Bus1=5_286  Bus2=5_287  Length=10   units=m Linecode=Line_120    
New Line.MVLateral5.288 Bus1=5_287  Bus2=5_288  Length=10   units=m Linecode=Line_120    
New Line.MVLateral5.289 Bus1=5_288  Bus2=5_289  Length=10   units=m Linecode=Line_120    
New Line.MVLateral5.290 Bus1=5_289  Bus2=5_290  Length=10   units=m Linecode=Line_120    
New Line.MVLateral5.291 Bus1=5_290  Bus2=5_291  Length=10   units=m Linecode=Line_120    
New Line.MVLateral5.292 Bus1=5_291  Bus2=5_292  Length=10   units=m Linecode=Line_120    
New Line.MVLateral5.293 Bus1=5_292  Bus2=5_293  Length=10   units=m Linecode=Line_120    
New Line.MVLateral5.294 Bus1=5_293  Bus2=5_294  Length=10   units=m Linecode=Line_120    
New Line.MVLateral5.295 Bus1=5_294  Bus2=5_295  Length=10   units=m Linecode=Line_120    
New Line.MVLateral5.296 Bus1=5_295  Bus2=5_296  Length=10   units=m Linecode=Line_120    
New Line.MVLateral5.297 Bus1=5_296  Bus2=5_297  Length=10   units=m Linecode=Line_120    
New Line.MVLateral5.298 Bus1=5_297  Bus2=5_298  Length=10   units=m Linecode=Line_120    
New Line.MVLateral5.299 Bus1=5_298  Bus2=5_299  Length=10   units=m Linecode=Line_120    
New Line.MVLateral5.300 Bus1=5_299  Bus2=5_300  Length=10   units=m Linecode=Line_120    
New Line.MVLateral5.301 Bus1=5_300  Bus2=5_301  Length=10   units=m Linecode=Line_120    
New Line.MVLateral5.302 Bus1=5_301  Bus2=5_302  Length=10   units=m Linecode=Line_120    
New Line.MVLateral5.303 Bus1=5_302  Bus2=5_303  Length=10   units=m Linecode=Line_120    
New Line.MVLateral5_end_2   Bus1=5_303  Bus2=5_304  Length=10   units=m Linecode=Line_120    
                            
New Line.MVFeeder5.305  Bus1=5_183  Bus2=5_305  Length=10   units=m Linecode=Line_240   
New Line.MVFeeder5.306  Bus1=5_305  Bus2=5_306  Length=10   units=m Linecode=Line_240   
New Line.MVFeeder5.307  Bus1=5_306  Bus2=5_307  Length=10   units=m Linecode=Line_240   
New Line.MVFeeder5.308  Bus1=5_307  Bus2=5_308  Length=10   units=m Linecode=Line_240   
New Line.MVFeeder5.309  Bus1=5_308  Bus2=5_309  Length=10   units=m Linecode=Line_240   
New Line.MVFeeder5.310  Bus1=5_309  Bus2=5_310  Length=10   units=m Linecode=Line_240   
New Line.MVFeeder5.311  Bus1=5_310  Bus2=5_311  Length=10   units=m Linecode=Line_240   
New Line.MVFeeder5.312  Bus1=5_311  Bus2=5_312  Length=10   units=m Linecode=Line_240   
New Line.MVFeeder5.313  Bus1=5_312  Bus2=5_313  Length=10   units=m Linecode=Line_240   
New Line.MVFeeder5.314  Bus1=5_313  Bus2=5_314  Length=10   units=m Linecode=Line_240   
New Line.MVFeeder5.315  Bus1=5_314  Bus2=5_315  Length=10   units=m Linecode=Line_240   
New Line.MVFeeder5.316  Bus1=5_315  Bus2=5_316  Length=10   units=m Linecode=Line_240   
New Line.MVFeeder5.317  Bus1=5_316  Bus2=5_317  Length=10   units=m Linecode=Line_240   
New Line.MVFeeder5.318  Bus1=5_317  Bus2=5_318  Length=10   units=m Linecode=Line_240   
New Line.MVFeeder5.319  Bus1=5_318  Bus2=5_319  Length=10   units=m Linecode=Line_240   
New Line.MVFeeder5.320  Bus1=5_319  Bus2=5_320  Length=10   units=m Linecode=Line_240   
New Line.MVFeeder5.321  Bus1=5_320  Bus2=5_321  Length=10   units=m Linecode=Line_240   
New Line.MVFeeder5.322  Bus1=5_321  Bus2=5_322  Length=10   units=m Linecode=Line_240   
New Line.MVFeeder5.323  Bus1=5_322  Bus2=5_323  Length=10   units=m Linecode=Line_240   
New Line.MVFeeder5.324  Bus1=5_323  Bus2=5_324  Length=10   units=m Linecode=Line_240   
New Line.MVFeeder5.325  Bus1=5_324  Bus2=5_325  Length=10   units=m Linecode=Line_240   
New Line.MVFeeder5.326  Bus1=5_325  Bus2=5_326  Length=10   units=m Linecode=Line_240   
New Line.MVFeeder5.327  Bus1=5_326  Bus2=5_327  Length=10   units=m Linecode=Line_240   
New Line.MVFeeder5.328  Bus1=5_327  Bus2=5_328  Length=10   units=m Linecode=Line_240   
New Line.MVFeeder5.329  Bus1=5_328  Bus2=5_329  Length=10   units=m Linecode=Line_240   
New Line.MVFeeder5.330  Bus1=5_329  Bus2=5_330  Length=10   units=m Linecode=Line_240   
New Line.MVFeeder5.331  Bus1=5_330  Bus2=5_331  Length=10   units=m Linecode=Line_240   
New Line.MVFeeder5.332  Bus1=5_331  Bus2=5_332  Length=10   units=m Linecode=Line_240   
New Line.MVFeeder5.333  Bus1=5_332  Bus2=5_333  Length=10   units=m Linecode=Line_240   
New Line.MVFeeder5.334  Bus1=5_333  Bus2=5_334  Length=10   units=m Linecode=Line_240   
New Line.MVFeeder5.335  Bus1=5_334  Bus2=5_335  Length=10   units=m Linecode=Line_240   
New Line.MVFeeder5.336  Bus1=5_335  Bus2=5_336  Length=10   units=m Linecode=Line_240   
New Line.MVFeeder5.337  Bus1=5_336  Bus2=5_337  Length=10   units=m Linecode=Line_240   
New Line.MVFeeder5.338  Bus1=5_337  Bus2=5_338  Length=10   units=m Linecode=Line_240   
New Line.MVFeeder5.339  Bus1=5_338  Bus2=5_339  Length=10   units=m Linecode=Line_240   
New Line.MVFeeder5.340  Bus1=5_339  Bus2=5_340  Length=10   units=m Linecode=Line_240   
New Line.MVFeeder5.341  Bus1=5_340  Bus2=5_341  Length=10   units=m Linecode=Line_240   