New Line.MVFeeder1.1    Bus1=Main_Busbar    Bus2=1_1    Length=10   units=m Linecode=Line_240   
New Line.MVFeeder1.2    Bus1=1_1    Bus2=1_2    Length=10   units=m Linecode=Line_240   
New Line.MVFeeder1.3    Bus1=1_2    Bus2=1_3    Length=10   units=m Linecode=Line_240   
New Line.MVFeeder1.4    Bus1=1_3    Bus2=1_4    Length=10   units=m Linecode=Line_240   
New Line.MVFeeder1.5    Bus1=1_4    Bus2=1_5    Length=10   units=m Linecode=Line_240   
New Line.MVFeeder1.6    Bus1=1_5    Bus2=1_6    Length=10   units=m Linecode=Line_240   
New Line.MVFeeder1.7    Bus1=1_6    Bus2=1_7    Length=10   units=m Linecode=Line_240   
New Line.MVFeeder1.8    Bus1=1_7    Bus2=1_8    Length=10   units=m Linecode=Line_240   
New Line.MVFeeder1.9    Bus1=1_8    Bus2=1_9    Length=10   units=m Linecode=Line_240   
New Line.MVFeeder1.10   Bus1=1_9    Bus2=1_10   Length=10   units=m Linecode=Line_240   
New Line.MVFeeder1.11   Bus1=1_10   Bus2=1_11   Length=10   units=m Linecode=Line_240   
New Line.MVFeeder1.12   Bus1=1_11   Bus2=1_12   Length=10   units=m Linecode=Line_240   
New Line.MVFeeder1.13   Bus1=1_12   Bus2=1_13   Length=10   units=m Linecode=Line_240   
New Line.MVFeeder1.14   Bus1=1_13   Bus2=1_14   Length=10   units=m Linecode=Line_240   
New Line.MVFeeder1.15   Bus1=1_14   Bus2=1_15   Length=10   units=m Linecode=Line_240   
New Line.MVFeeder1.16   Bus1=1_15   Bus2=1_16   Length=10   units=m Linecode=Line_240   
New Line.MVFeeder1.17   Bus1=1_16   Bus2=1_17   Length=10   units=m Linecode=Line_240   
New Line.MVFeeder1.18   Bus1=1_17   Bus2=1_18   Length=10   units=m Linecode=Line_240   
New Line.MVFeeder1.19   Bus1=1_18   Bus2=1_19   Length=10   units=m Linecode=Line_240   
New Line.MVFeeder1.20   Bus1=1_19   Bus2=1_20   Length=10   units=m Linecode=Line_240   
New Line.MVFeeder1.21   Bus1=1_20   Bus2=1_21   Length=10   units=m Linecode=Line_240   
                            
                            
New Line.MVLateral1_start_1 Bus1=1_20   Bus2=1_22   Length=10   units=m Linecode=Line_120    
New Line.MVLateral1.23  Bus1=1_22   Bus2=1_23   Length=10   units=m Linecode=Line_120    
New Line.MVLateral1.24  Bus1=1_23   Bus2=1_24   Length=10   units=m Linecode=Line_120    
New Line.MVLateral1.25  Bus1=1_24   Bus2=1_25   Length=10   units=m Linecode=Line_120    
New Line.MVLateral1.26  Bus1=1_25   Bus2=1_26   Length=10   units=m Linecode=Line_120    
New Line.MVLateral1.27  Bus1=1_26   Bus2=1_27   Length=10   units=m Linecode=Line_120    
New Line.MVLateral1.28  Bus1=1_27   Bus2=1_28   Length=10   units=m Linecode=Line_120    
New Line.MVLateral1.29  Bus1=1_28   Bus2=1_29   Length=10   units=m Linecode=Line_120    
New Line.MVLateral1.30  Bus1=1_29   Bus2=1_30   Length=10   units=m Linecode=Line_120    
New Line.MVLateral1.31  Bus1=1_30   Bus2=1_31   Length=10   units=m Linecode=Line_120    
New Line.MVLateral1.32  Bus1=1_31   Bus2=1_32   Length=10   units=m Linecode=Line_120    
New Line.MVLateral1.33  Bus1=1_32   Bus2=1_33   Length=10   units=m Linecode=Line_120    
New Line.MVLateral1.34  Bus1=1_33   Bus2=1_34   Length=10   units=m Linecode=Line_120    
New Line.MVLateral1.35  Bus1=1_34   Bus2=1_35   Length=10   units=m Linecode=Line_120    
New Line.MVLateral1.36  Bus1=1_35   Bus2=1_36   Length=10   units=m Linecode=Line_120    
New Line.MVLateral1.37  Bus1=1_36   Bus2=1_37   Length=10   units=m Linecode=Line_120    
New Line.MVLateral1.38  Bus1=1_37   Bus2=1_38   Length=10   units=m Linecode=Line_120    
New Line.MVLateral1.39  Bus1=1_38   Bus2=1_39   Length=10   units=m Linecode=Line_120    
New Line.MVLateral1.40  Bus1=1_39   Bus2=1_40   Length=10   units=m Linecode=Line_120    
New Line.MVLateral1.41  Bus1=1_40   Bus2=1_41   Length=10   units=m Linecode=Line_120    
New Line.MVLateral1.42  Bus1=1_41   Bus2=1_42   Length=10   units=m Linecode=Line_120    
New Line.MVLateral1.43  Bus1=1_42   Bus2=1_43   Length=10   units=m Linecode=Line_120    
New Line.MVLateral1.44  Bus1=1_43   Bus2=1_44   Length=10   units=m Linecode=Line_120    
New Line.MVLateral1.45  Bus1=1_44   Bus2=1_45   Length=10   units=m Linecode=Line_120    
New Line.MVLateral1.46  Bus1=1_45   Bus2=1_46   Length=10   units=m Linecode=Line_120    
New Line.MVLateral1.47  Bus1=1_46   Bus2=1_47   Length=10   units=m Linecode=Line_120    
New Line.MVLateral1.48  Bus1=1_47   Bus2=1_48   Length=10   units=m Linecode=Line_120    
New Line.MVLateral1.49  Bus1=1_48   Bus2=1_49   Length=10   units=m Linecode=Line_120    
New Line.MVLateral1.50  Bus1=1_49   Bus2=1_50   Length=10   units=m Linecode=Line_120    
New Line.MVLateral1.51  Bus1=1_50   Bus2=1_51   Length=10   units=m Linecode=Line_120    
New Line.MVLateral1.52  Bus1=1_51   Bus2=1_52   Length=10   units=m Linecode=Line_120    
New Line.MVLateral1.53  Bus1=1_52   Bus2=1_53   Length=10   units=m Linecode=Line_120    
New Line.MVLateral1.54  Bus1=1_53   Bus2=1_54   Length=10   units=m Linecode=Line_120    
New Line.MVLateral1.55  Bus1=1_54   Bus2=1_55   Length=10   units=m Linecode=Line_120    
New Line.MVLateral1.56  Bus1=1_55   Bus2=1_56   Length=10   units=m Linecode=Line_120    
New Line.MVLateral1.57  Bus1=1_56   Bus2=1_57   Length=10   units=m Linecode=Line_120    
New Line.MVLateral1.58  Bus1=1_57   Bus2=1_58   Length=10   units=m Linecode=Line_120    
New Line.MVLateral1.59  Bus1=1_58   Bus2=1_59   Length=10   units=m Linecode=Line_120    
New Line.MVLateral1.60  Bus1=1_59   Bus2=1_60   Length=10   units=m Linecode=Line_120    
New Line.MVLateral1.61  Bus1=1_60   Bus2=1_61   Length=10   units=m Linecode=Line_120    
New Line.MVLateral1.62  Bus1=1_61   Bus2=1_62   Length=10   units=m Linecode=Line_120    
New Line.MVLateral1.63  Bus1=1_62   Bus2=1_63   Length=10   units=m Linecode=Line_120    
New Line.MVLateral1.64  Bus1=1_63   Bus2=1_64   Length=10   units=m Linecode=Line_120    
New Line.MVLateral1.65  Bus1=1_64   Bus2=1_65   Length=10   units=m Linecode=Line_120    
New Line.MVLateral1.66  Bus1=1_65   Bus2=1_66   Length=10   units=m Linecode=Line_120    
New Line.MVLateral1.67  Bus1=1_66   Bus2=1_67   Length=10   units=m Linecode=Line_120    
New Line.MVLateral1.68  Bus1=1_67   Bus2=1_68   Length=10   units=m Linecode=Line_120    
New Line.MVLateral1.69  Bus1=1_68   Bus2=1_69   Length=10   units=m Linecode=Line_120    
New Line.MVLateral1.70  Bus1=1_69   Bus2=1_70   Length=10   units=m Linecode=Line_120    
New Line.MVLateral1.71  Bus1=1_70   Bus2=1_71   Length=10   units=m Linecode=Line_120    
New Line.MVLateral1.72  Bus1=1_71   Bus2=1_72   Length=10   units=m Linecode=Line_120    
New Line.MVLateral1.73  Bus1=1_72   Bus2=1_73   Length=10   units=m Linecode=Line_120    
New Line.MVLateral1.74  Bus1=1_73   Bus2=1_74   Length=10   units=m Linecode=Line_120    
New Line.MVLateral1.75  Bus1=1_74   Bus2=1_75   Length=10   units=m Linecode=Line_120    
                            
New Line.MVLateral1.86  Bus1=1_85   Bus2=1_86   Length=10   units=m Linecode=Line_120    
New Line.MVLateral1.87  Bus1=1_86   Bus2=1_87   Length=10   units=m Linecode=Line_120    
New Line.MVLateral1.88  Bus1=1_87   Bus2=1_88   Length=10   units=m Linecode=Line_120    
New Line.MVLateral1.89  Bus1=1_88   Bus2=1_89   Length=10   units=m Linecode=Line_120    
New Line.MVLateral1.90  Bus1=1_89   Bus2=1_90   Length=10   units=m Linecode=Line_120    
New Line.MVLateral1.91  Bus1=1_90   Bus2=1_91   Length=10   units=m Linecode=Line_120    
New Line.MVLateral1.92  Bus1=1_91   Bus2=1_92   Length=10   units=m Linecode=Line_120    
New Line.MVLateral1.93  Bus1=1_92   Bus2=1_93   Length=10   units=m Linecode=Line_120    
New Line.MVLateral1.94  Bus1=1_93   Bus2=1_94   Length=10   units=m Linecode=Line_120    
New Line.MVLateral1.95  Bus1=1_94   Bus2=1_95   Length=10   units=m Linecode=Line_120    
New Line.MVLateral1.96  Bus1=1_95   Bus2=1_96   Length=10   units=m Linecode=Line_120    
New Line.MVLateral1.97  Bus1=1_96   Bus2=1_97   Length=10   units=m Linecode=Line_120    
New Line.MVLateral1.98  Bus1=1_97   Bus2=1_98   Length=10   units=m Linecode=Line_120    
New Line.MVLateral1.99  Bus1=1_98   Bus2=1_99   Length=10   units=m Linecode=Line_120    
New Line.MVLateral1.100 Bus1=1_99   Bus2=1_100  Length=10   units=m Linecode=Line_120    
New Line.MVLateral1.101 Bus1=1_100  Bus2=1_101  Length=10   units=m Linecode=Line_120    
New Line.MVLateral1.102 Bus1=1_101  Bus2=1_102  Length=10   units=m Linecode=Line_120    
New Line.MVLateral1.103 Bus1=1_102  Bus2=1_103  Length=10   units=m Linecode=Line_120    
New Line.MVLateral1.104 Bus1=1_103  Bus2=1_104  Length=10   units=m Linecode=Line_120    
New Line.MVLateral1.105 Bus1=1_104  Bus2=1_105  Length=10   units=m Linecode=Line_120    
New Line.MVLateral1.106 Bus1=1_105  Bus2=1_106  Length=10   units=m Linecode=Line_120    
New Line.MVLateral1.107 Bus1=1_106  Bus2=1_107  Length=10   units=m Linecode=Line_120    
New Line.MVLateral1.108 Bus1=1_107  Bus2=1_108  Length=10   units=m Linecode=Line_120    
New Line.MVLateral1.109 Bus1=1_108  Bus2=1_109  Length=10   units=m Linecode=Line_120    
New Line.MVLateral1.110 Bus1=1_109  Bus2=1_110  Length=10   units=m Linecode=Line_120    
New Line.MVLateral1.111 Bus1=1_110  Bus2=1_111  Length=10   units=m Linecode=Line_120    
New Line.MVLateral1.112 Bus1=1_111  Bus2=1_112  Length=10   units=m Linecode=Line_120    
New Line.MVLateral1.113 Bus1=1_112  Bus2=1_113  Length=10   units=m Linecode=Line_120    
New Line.MVLateral1.114 Bus1=1_113  Bus2=1_114  Length=10   units=m Linecode=Line_120    
New Line.MVLateral1.115 Bus1=1_114  Bus2=1_115  Length=10   units=m Linecode=Line_120    
New Line.MVLateral1.116 Bus1=1_115  Bus2=1_116  Length=10   units=m Linecode=Line_120    
New Line.MVLateral1.117 Bus1=1_116  Bus2=1_117  Length=10   units=m Linecode=Line_120    
New Line.MVLateral1.118 Bus1=1_117  Bus2=1_118  Length=10   units=m Linecode=Line_120    
New Line.MVLateral1.119 Bus1=1_118  Bus2=1_119  Length=10   units=m Linecode=Line_120    
New Line.MVLateral1.120 Bus1=1_119  Bus2=1_120  Length=10   units=m Linecode=Line_120    
New Line.MVLateral1.121 Bus1=1_120  Bus2=1_121  Length=10   units=m Linecode=Line_120    
New Line.MVLateral1.122 Bus1=1_121  Bus2=1_122  Length=10   units=m Linecode=Line_120    
                            
New Line.MVLateral1.123 Bus1=1_122  Bus2=1_123  Length=10   units=m Linecode=Line_120    
New Line.MVLateral1.124 Bus1=1_123  Bus2=1_124  Length=10   units=m Linecode=Line_120    
New Line.MVLateral1.125 Bus1=1_124  Bus2=1_125  Length=10   units=m Linecode=Line_120    
New Line.MVLateral1.126 Bus1=1_125  Bus2=1_126  Length=10   units=m Linecode=Line_120    
New Line.MVLateral1.127 Bus1=1_126  Bus2=1_127  Length=10   units=m Linecode=Line_120    
New Line.MVLateral1.128 Bus1=1_127  Bus2=1_128  Length=10   units=m Linecode=Line_120    
New Line.MVLateral1.129 Bus1=1_128  Bus2=1_129  Length=10   units=m Linecode=Line_120    
New Line.MVLateral1.130 Bus1=1_129  Bus2=1_130  Length=10   units=m Linecode=Line_120    
                            
New Line.MVLateral1.131 Bus1=1_130  Bus2=1_131  Length=10   units=m Linecode=Line_120    
New Line.MVLateral1.132 Bus1=1_131  Bus2=1_132  Length=10   units=m Linecode=Line_120    
New Line.MVLateral1.133 Bus1=1_132  Bus2=1_133  Length=10   units=m Linecode=Line_120    
New Line.MVLateral1.134 Bus1=1_133  Bus2=1_134  Length=10   units=m Linecode=Line_120    
New Line.MVLateral1.135 Bus1=1_134  Bus2=1_135  Length=10   units=m Linecode=Line_120    
New Line.MVLateral1.136 Bus1=1_135  Bus2=1_136  Length=10   units=m Linecode=Line_120    
New Line.MVLateral1.137 Bus1=1_136  Bus2=1_137  Length=10   units=m Linecode=Line_120    
New Line.MVLateral1.138 Bus1=1_137  Bus2=1_138  Length=10   units=m Linecode=Line_120    
New Line.MVLateral1.139 Bus1=1_138  Bus2=1_139  Length=10   units=m Linecode=Line_120    
New Line.MVLateral1.140 Bus1=1_139  Bus2=1_140  Length=10   units=m Linecode=Line_120    
New Line.MVLateral1.141 Bus1=1_140  Bus2=1_141  Length=10   units=m Linecode=Line_120    
New Line.MVLateral1_end_1   Bus1=1_141  Bus2=1_142  Length=10   units=m Linecode=Line_120    
                            
New Line.MVFeeder1.143  Bus1=1_21   Bus2=1_143  Length=10   units=m Linecode=Line_240   
New Line.MVFeeder1.144  Bus1=1_143  Bus2=1_144  Length=10   units=m Linecode=Line_240   
New Line.MVFeeder1.145  Bus1=1_144  Bus2=1_145  Length=10   units=m Linecode=Line_240   
New Line.MVFeeder1.146  Bus1=1_145  Bus2=1_146  Length=10   units=m Linecode=Line_240   
New Line.MVFeeder1.147  Bus1=1_146  Bus2=1_147  Length=10   units=m Linecode=Line_240   
New Line.MVFeeder1.148  Bus1=1_147  Bus2=1_148  Length=10   units=m Linecode=Line_240   
New Line.MVFeeder1.149  Bus1=1_148  Bus2=1_149  Length=10   units=m Linecode=Line_240   
New Line.MVFeeder1.150  Bus1=1_149  Bus2=1_150  Length=10   units=m Linecode=Line_240   
New Line.MVFeeder1.151  Bus1=1_150  Bus2=1_151  Length=10   units=m Linecode=Line_240   
New Line.MVFeeder1.152  Bus1=1_151  Bus2=1_152  Length=10   units=m Linecode=Line_240   
New Line.MVFeeder1.153  Bus1=1_152  Bus2=1_153  Length=10   units=m Linecode=Line_240   
New Line.MVFeeder1.154  Bus1=1_153  Bus2=1_154  Length=10   units=m Linecode=Line_240   
New Line.MVFeeder1.155  Bus1=1_154  Bus2=1_155  Length=10   units=m Linecode=Line_240   
New Line.MVFeeder1.156  Bus1=1_155  Bus2=1_156  Length=10   units=m Linecode=Line_240   
New Line.MVFeeder1.157  Bus1=1_156  Bus2=1_157  Length=10   units=m Linecode=Line_240   
New Line.MVFeeder1.158  Bus1=1_157  Bus2=1_158  Length=10   units=m Linecode=Line_240   
New Line.MVFeeder1.159  Bus1=1_158  Bus2=1_159  Length=10   units=m Linecode=Line_240   
New Line.MVFeeder1.160  Bus1=1_159  Bus2=1_160  Length=10   units=m Linecode=Line_240   
New Line.MVFeeder1.161  Bus1=1_160  Bus2=1_161  Length=10   units=m Linecode=Line_240   
New Line.MVFeeder1.162  Bus1=1_161  Bus2=1_162  Length=10   units=m Linecode=Line_240   
New Line.MVFeeder1.163  Bus1=1_162  Bus2=1_163  Length=10   units=m Linecode=Line_240   
New Line.MVFeeder1.164  Bus1=1_163  Bus2=1_164  Length=10   units=m Linecode=Line_240   
New Line.MVFeeder1.165  Bus1=1_164  Bus2=1_165  Length=10   units=m Linecode=Line_240   
New Line.MVFeeder1.166  Bus1=1_165  Bus2=1_166  Length=10   units=m Linecode=Line_240   
New Line.MVFeeder1.167  Bus1=1_166  Bus2=1_167  Length=10   units=m Linecode=Line_240   
New Line.MVFeeder1.168  Bus1=1_167  Bus2=1_168  Length=10   units=m Linecode=Line_240   
New Line.MVFeeder1.169  Bus1=1_168  Bus2=1_169  Length=10   units=m Linecode=Line_240   
New Line.MVFeeder1.170  Bus1=1_169  Bus2=1_170  Length=10   units=m Linecode=Line_240   
New Line.MVFeeder1.171  Bus1=1_170  Bus2=1_171  Length=10   units=m Linecode=Line_240   
New Line.MVFeeder1.172  Bus1=1_171  Bus2=1_172  Length=10   units=m Linecode=Line_240   
New Line.MVFeeder1.173  Bus1=1_172  Bus2=1_173  Length=10   units=m Linecode=Line_240   
New Line.MVFeeder1.174  Bus1=1_173  Bus2=1_174  Length=10   units=m Linecode=Line_240   
New Line.MVFeeder1.175  Bus1=1_174  Bus2=1_175  Length=10   units=m Linecode=Line_240   
New Line.MVFeeder1.176  Bus1=1_175  Bus2=1_176  Length=10   units=m Linecode=Line_240   
New Line.MVFeeder1.177  Bus1=1_176  Bus2=1_177  Length=10   units=m Linecode=Line_240   
New Line.MVFeeder1.178  Bus1=1_177  Bus2=1_178  Length=10   units=m Linecode=Line_240   
New Line.MVFeeder1.179  Bus1=1_178  Bus2=1_179  Length=10   units=m Linecode=Line_240   
New Line.MVFeeder1.180  Bus1=1_179  Bus2=1_180  Length=10   units=m Linecode=Line_240   
New Line.MVFeeder1.181  Bus1=1_180  Bus2=1_181  Length=10   units=m Linecode=Line_240   
New Line.MVFeeder1.182  Bus1=1_181  Bus2=1_182  Length=10   units=m Linecode=Line_240   
New Line.MVFeeder1.183  Bus1=1_182  Bus2=1_183  Length=10   units=m Linecode=Line_240   
                            
New Line.MVLateral1_start_2 Bus1=1_182  Bus2=1_184  Length=10   units=m Linecode=Line_120    
New Line.MVLateral1.185 Bus1=1_184  Bus2=1_185  Length=10   units=m Linecode=Line_120    
New Line.MVLateral1.186 Bus1=1_185  Bus2=1_186  Length=10   units=m Linecode=Line_120    
New Line.MVLateral1.187 Bus1=1_186  Bus2=1_187  Length=10   units=m Linecode=Line_120    
New Line.MVLateral1.188 Bus1=1_187  Bus2=1_188  Length=10   units=m Linecode=Line_120    
New Line.MVLateral1.189 Bus1=1_188  Bus2=1_189  Length=10   units=m Linecode=Line_120    
New Line.MVLateral1.190 Bus1=1_189  Bus2=1_190  Length=10   units=m Linecode=Line_120    
New Line.MVLateral1.191 Bus1=1_190  Bus2=1_191  Length=10   units=m Linecode=Line_120    
New Line.MVLateral1.192 Bus1=1_191  Bus2=1_192  Length=10   units=m Linecode=Line_120    
New Line.MVLateral1.193 Bus1=1_192  Bus2=1_193  Length=10   units=m Linecode=Line_120    
New Line.MVLateral1.194 Bus1=1_193  Bus2=1_194  Length=10   units=m Linecode=Line_120    
New Line.MVLateral1.195 Bus1=1_194  Bus2=1_195  Length=10   units=m Linecode=Line_120    
New Line.MVLateral1.196 Bus1=1_195  Bus2=1_196  Length=10   units=m Linecode=Line_120    
New Line.MVLateral1.197 Bus1=1_196  Bus2=1_197  Length=10   units=m Linecode=Line_120    
New Line.MVLateral1.198 Bus1=1_197  Bus2=1_198  Length=10   units=m Linecode=Line_120    
New Line.MVLateral1.199 Bus1=1_198  Bus2=1_199  Length=10   units=m Linecode=Line_120    
New Line.MVLateral1.200 Bus1=1_199  Bus2=1_200  Length=10   units=m Linecode=Line_120    
New Line.MVLateral1.201 Bus1=1_200  Bus2=1_201  Length=10   units=m Linecode=Line_120    
New Line.MVLateral1.202 Bus1=1_201  Bus2=1_202  Length=10   units=m Linecode=Line_120    
New Line.MVLateral1.203 Bus1=1_202  Bus2=1_203  Length=10   units=m Linecode=Line_120    
New Line.MVLateral1.204 Bus1=1_203  Bus2=1_204  Length=10   units=m Linecode=Line_120    
New Line.MVLateral1.205 Bus1=1_204  Bus2=1_205  Length=10   units=m Linecode=Line_120    
New Line.MVLateral1.206 Bus1=1_205  Bus2=1_206  Length=10   units=m Linecode=Line_120    
New Line.MVLateral1.207 Bus1=1_206  Bus2=1_207  Length=10   units=m Linecode=Line_120    
New Line.MVLateral1.208 Bus1=1_207  Bus2=1_208  Length=10   units=m Linecode=Line_120    
New Line.MVLateral1.209 Bus1=1_208  Bus2=1_209  Length=10   units=m Linecode=Line_120    
New Line.MVLateral1.210 Bus1=1_209  Bus2=1_210  Length=10   units=m Linecode=Line_120    
New Line.MVLateral1.211 Bus1=1_210  Bus2=1_211  Length=10   units=m Linecode=Line_120    
New Line.MVLateral1.212 Bus1=1_211  Bus2=1_212  Length=10   units=m Linecode=Line_120    
New Line.MVLateral1.213 Bus1=1_212  Bus2=1_213  Length=10   units=m Linecode=Line_120    
New Line.MVLateral1.214 Bus1=1_213  Bus2=1_214  Length=10   units=m Linecode=Line_120    
New Line.MVLateral1.215 Bus1=1_214  Bus2=1_215  Length=10   units=m Linecode=Line_120    
New Line.MVLateral1.216 Bus1=1_215  Bus2=1_216  Length=10   units=m Linecode=Line_120    
New Line.MVLateral1.217 Bus1=1_216  Bus2=1_217  Length=10   units=m Linecode=Line_120    
New Line.MVLateral1.218 Bus1=1_217  Bus2=1_218  Length=10   units=m Linecode=Line_120    
New Line.MVLateral1.219 Bus1=1_218  Bus2=1_219  Length=10   units=m Linecode=Line_120    
New Line.MVLateral1.220 Bus1=1_219  Bus2=1_220  Length=10   units=m Linecode=Line_120    
New Line.MVLateral1.221 Bus1=1_220  Bus2=1_221  Length=10   units=m Linecode=Line_120    
New Line.MVLateral1.222 Bus1=1_221  Bus2=1_222  Length=10   units=m Linecode=Line_120    
New Line.MVLateral1.223 Bus1=1_222  Bus2=1_223  Length=10   units=m Linecode=Line_120    
New Line.MVLateral1.224 Bus1=1_223  Bus2=1_224  Length=10   units=m Linecode=Line_120    
New Line.MVLateral1.225 Bus1=1_224  Bus2=1_225  Length=10   units=m Linecode=Line_120    
New Line.MVLateral1.226 Bus1=1_225  Bus2=1_226  Length=10   units=m Linecode=Line_120    
New Line.MVLateral1.227 Bus1=1_226  Bus2=1_227  Length=10   units=m Linecode=Line_120    
New Line.MVLateral1.228 Bus1=1_227  Bus2=1_228  Length=10   units=m Linecode=Line_120    
New Line.MVLateral1.229 Bus1=1_228  Bus2=1_229  Length=10   units=m Linecode=Line_120    
New Line.MVLateral1.230 Bus1=1_229  Bus2=1_230  Length=10   units=m Linecode=Line_120    
New Line.MVLateral1.231 Bus1=1_230  Bus2=1_231  Length=10   units=m Linecode=Line_120    
New Line.MVLateral1.232 Bus1=1_231  Bus2=1_232  Length=10   units=m Linecode=Line_120    
New Line.MVLateral1.233 Bus1=1_232  Bus2=1_233  Length=10   units=m Linecode=Line_120    
New Line.MVLateral1.234 Bus1=1_233  Bus2=1_234  Length=10   units=m Linecode=Line_120    
New Line.MVLateral1.235 Bus1=1_234  Bus2=1_235  Length=10   units=m Linecode=Line_120    
New Line.MVLateral1.236 Bus1=1_235  Bus2=1_236  Length=10   units=m Linecode=Line_120    
New Line.MVLateral1.237 Bus1=1_236  Bus2=1_237  Length=10   units=m Linecode=Line_120    
New Line.MVLateral1.238 Bus1=1_237  Bus2=1_238  Length=10   units=m Linecode=Line_120    
New Line.MVLateral1.239 Bus1=1_238  Bus2=1_239  Length=10   units=m Linecode=Line_120    
New Line.MVLateral1.240 Bus1=1_239  Bus2=1_240  Length=10   units=m Linecode=Line_120    
New Line.MVLateral1.241 Bus1=1_240  Bus2=1_241  Length=10   units=m Linecode=Line_120    
New Line.MVLateral1.242 Bus1=1_241  Bus2=1_242  Length=10   units=m Linecode=Line_120    
New Line.MVLateral1.243 Bus1=1_242  Bus2=1_243  Length=10   units=m Linecode=Line_120    
New Line.MVLateral1.244 Bus1=1_243  Bus2=1_244  Length=10   units=m Linecode=Line_120    
New Line.MVLateral1.245 Bus1=1_244  Bus2=1_245  Length=10   units=m Linecode=Line_120    
New Line.MVLateral1.246 Bus1=1_245  Bus2=1_246  Length=10   units=m Linecode=Line_120    
New Line.MVLateral1.247 Bus1=1_246  Bus2=1_247  Length=10   units=m Linecode=Line_120    
New Line.MVLateral1.248 Bus1=1_247  Bus2=1_248  Length=10   units=m Linecode=Line_120    
New Line.MVLateral1.249 Bus1=1_248  Bus2=1_249  Length=10   units=m Linecode=Line_120    
New Line.MVLateral1.250 Bus1=1_249  Bus2=1_250  Length=10   units=m Linecode=Line_120    
New Line.MVLateral1.251 Bus1=1_250  Bus2=1_251  Length=10   units=m Linecode=Line_120    
New Line.MVLateral1.252 Bus1=1_251  Bus2=1_252  Length=10   units=m Linecode=Line_120    
New Line.MVLateral1.253 Bus1=1_252  Bus2=1_253  Length=10   units=m Linecode=Line_120    
New Line.MVLateral1.254 Bus1=1_253  Bus2=1_254  Length=10   units=m Linecode=Line_120    
New Line.MVLateral1.255 Bus1=1_254  Bus2=1_255  Length=10   units=m Linecode=Line_120    
New Line.MVLateral1.256 Bus1=1_255  Bus2=1_256  Length=10   units=m Linecode=Line_120    
New Line.MVLateral1.257 Bus1=1_256  Bus2=1_257  Length=10   units=m Linecode=Line_120    
New Line.MVLateral1.258 Bus1=1_257  Bus2=1_258  Length=10   units=m Linecode=Line_120    
New Line.MVLateral1.259 Bus1=1_258  Bus2=1_259  Length=10   units=m Linecode=Line_120    
New Line.MVLateral1.260 Bus1=1_259  Bus2=1_260  Length=10   units=m Linecode=Line_120    
New Line.MVLateral1.261 Bus1=1_260  Bus2=1_261  Length=10   units=m Linecode=Line_120    
New Line.MVLateral1.262 Bus1=1_261  Bus2=1_262  Length=10   units=m Linecode=Line_120    
New Line.MVLateral1.263 Bus1=1_262  Bus2=1_263  Length=10   units=m Linecode=Line_120    
New Line.MVLateral1.264 Bus1=1_263  Bus2=1_264  Length=10   units=m Linecode=Line_120    
New Line.MVLateral1.265 Bus1=1_264  Bus2=1_265  Length=10   units=m Linecode=Line_120    
New Line.MVLateral1.266 Bus1=1_265  Bus2=1_266  Length=10   units=m Linecode=Line_120    
New Line.MVLateral1.267 Bus1=1_266  Bus2=1_267  Length=10   units=m Linecode=Line_120    
New Line.MVLateral1.268 Bus1=1_267  Bus2=1_268  Length=10   units=m Linecode=Line_120    
New Line.MVLateral1.269 Bus1=1_268  Bus2=1_269  Length=10   units=m Linecode=Line_120    
New Line.MVLateral1.270 Bus1=1_269  Bus2=1_270  Length=10   units=m Linecode=Line_120    
New Line.MVLateral1.271 Bus1=1_270  Bus2=1_271  Length=10   units=m Linecode=Line_120    
New Line.MVLateral1.272 Bus1=1_271  Bus2=1_272  Length=10   units=m Linecode=Line_120    
New Line.MVLateral1.273 Bus1=1_272  Bus2=1_273  Length=10   units=m Linecode=Line_120    
New Line.MVLateral1.274 Bus1=1_273  Bus2=1_274  Length=10   units=m Linecode=Line_120    
New Line.MVLateral1.275 Bus1=1_274  Bus2=1_275  Length=10   units=m Linecode=Line_120    
New Line.MVLateral1.276 Bus1=1_275  Bus2=1_276  Length=10   units=m Linecode=Line_120    
New Line.MVLateral1.277 Bus1=1_276  Bus2=1_277  Length=10   units=m Linecode=Line_120    
New Line.MVLateral1.278 Bus1=1_277  Bus2=1_278  Length=10   units=m Linecode=Line_120    
New Line.MVLateral1.279 Bus1=1_278  Bus2=1_279  Length=10   units=m Linecode=Line_120    
New Line.MVLateral1.280 Bus1=1_279  Bus2=1_280  Length=10   units=m Linecode=Line_120    
New Line.MVLateral1.281 Bus1=1_280  Bus2=1_281  Length=10   units=m Linecode=Line_120    
New Line.MVLateral1.282 Bus1=1_281  Bus2=1_282  Length=10   units=m Linecode=Line_120    
New Line.MVLateral1.283 Bus1=1_282  Bus2=1_283  Length=10   units=m Linecode=Line_120    
New Line.MVLateral1.284 Bus1=1_283  Bus2=1_284  Length=10   units=m Linecode=Line_120    
New Line.MVLateral1.285 Bus1=1_284  Bus2=1_285  Length=10   units=m Linecode=Line_120    
New Line.MVLateral1.286 Bus1=1_285  Bus2=1_286  Length=10   units=m Linecode=Line_120    
New Line.MVLateral1.287 Bus1=1_286  Bus2=1_287  Length=10   units=m Linecode=Line_120    
New Line.MVLateral1.288 Bus1=1_287  Bus2=1_288  Length=10   units=m Linecode=Line_120    
New Line.MVLateral1.289 Bus1=1_288  Bus2=1_289  Length=10   units=m Linecode=Line_120    
New Line.MVLateral1.290 Bus1=1_289  Bus2=1_290  Length=10   units=m Linecode=Line_120    
New Line.MVLateral1.291 Bus1=1_290  Bus2=1_291  Length=10   units=m Linecode=Line_120    
New Line.MVLateral1.292 Bus1=1_291  Bus2=1_292  Length=10   units=m Linecode=Line_120    
New Line.MVLateral1.293 Bus1=1_292  Bus2=1_293  Length=10   units=m Linecode=Line_120    
New Line.MVLateral1.294 Bus1=1_293  Bus2=1_294  Length=10   units=m Linecode=Line_120    
New Line.MVLateral1.295 Bus1=1_294  Bus2=1_295  Length=10   units=m Linecode=Line_120    
New Line.MVLateral1.296 Bus1=1_295  Bus2=1_296  Length=10   units=m Linecode=Line_120    
New Line.MVLateral1.297 Bus1=1_296  Bus2=1_297  Length=10   units=m Linecode=Line_120    
New Line.MVLateral1.298 Bus1=1_297  Bus2=1_298  Length=10   units=m Linecode=Line_120    
New Line.MVLateral1.299 Bus1=1_298  Bus2=1_299  Length=10   units=m Linecode=Line_120    
New Line.MVLateral1.300 Bus1=1_299  Bus2=1_300  Length=10   units=m Linecode=Line_120    
New Line.MVLateral1.301 Bus1=1_300  Bus2=1_301  Length=10   units=m Linecode=Line_120    
New Line.MVLateral1.302 Bus1=1_301  Bus2=1_302  Length=10   units=m Linecode=Line_120    
New Line.MVLateral1.303 Bus1=1_302  Bus2=1_303  Length=10   units=m Linecode=Line_120    
New Line.MVLateral1_end_2   Bus1=1_303  Bus2=1_304  Length=10   units=m Linecode=Line_120    
                            
New Line.MVFeeder1.305  Bus1=1_183  Bus2=1_305  Length=10   units=m Linecode=Line_240   
New Line.MVFeeder1.306  Bus1=1_305  Bus2=1_306  Length=10   units=m Linecode=Line_240   
New Line.MVFeeder1.307  Bus1=1_306  Bus2=1_307  Length=10   units=m Linecode=Line_240   
New Line.MVFeeder1.308  Bus1=1_307  Bus2=1_308  Length=10   units=m Linecode=Line_240   
New Line.MVFeeder1.309  Bus1=1_308  Bus2=1_309  Length=10   units=m Linecode=Line_240   
New Line.MVFeeder1.310  Bus1=1_309  Bus2=1_310  Length=10   units=m Linecode=Line_240   
New Line.MVFeeder1.311  Bus1=1_310  Bus2=1_311  Length=10   units=m Linecode=Line_240   
New Line.MVFeeder1.312  Bus1=1_311  Bus2=1_312  Length=10   units=m Linecode=Line_240   
New Line.MVFeeder1.313  Bus1=1_312  Bus2=1_313  Length=10   units=m Linecode=Line_240   
New Line.MVFeeder1.314  Bus1=1_313  Bus2=1_314  Length=10   units=m Linecode=Line_240   
New Line.MVFeeder1.315  Bus1=1_314  Bus2=1_315  Length=10   units=m Linecode=Line_240   
New Line.MVFeeder1.316  Bus1=1_315  Bus2=1_316  Length=10   units=m Linecode=Line_240   
New Line.MVFeeder1.317  Bus1=1_316  Bus2=1_317  Length=10   units=m Linecode=Line_240   
New Line.MVFeeder1.318  Bus1=1_317  Bus2=1_318  Length=10   units=m Linecode=Line_240   
New Line.MVFeeder1.319  Bus1=1_318  Bus2=1_319  Length=10   units=m Linecode=Line_240   
New Line.MVFeeder1.320  Bus1=1_319  Bus2=1_320  Length=10   units=m Linecode=Line_240   
New Line.MVFeeder1.321  Bus1=1_320  Bus2=1_321  Length=10   units=m Linecode=Line_240   
New Line.MVFeeder1.322  Bus1=1_321  Bus2=1_322  Length=10   units=m Linecode=Line_240   
New Line.MVFeeder1.323  Bus1=1_322  Bus2=1_323  Length=10   units=m Linecode=Line_240   
New Line.MVFeeder1.324  Bus1=1_323  Bus2=1_324  Length=10   units=m Linecode=Line_240   
New Line.MVFeeder1.325  Bus1=1_324  Bus2=1_325  Length=10   units=m Linecode=Line_240   
New Line.MVFeeder1.326  Bus1=1_325  Bus2=1_326  Length=10   units=m Linecode=Line_240   
New Line.MVFeeder1.327  Bus1=1_326  Bus2=1_327  Length=10   units=m Linecode=Line_240   
New Line.MVFeeder1.328  Bus1=1_327  Bus2=1_328  Length=10   units=m Linecode=Line_240   
New Line.MVFeeder1.329  Bus1=1_328  Bus2=1_329  Length=10   units=m Linecode=Line_240   
New Line.MVFeeder1.330  Bus1=1_329  Bus2=1_330  Length=10   units=m Linecode=Line_240   
New Line.MVFeeder1.331  Bus1=1_330  Bus2=1_331  Length=10   units=m Linecode=Line_240   
New Line.MVFeeder1.332  Bus1=1_331  Bus2=1_332  Length=10   units=m Linecode=Line_240   
New Line.MVFeeder1.333  Bus1=1_332  Bus2=1_333  Length=10   units=m Linecode=Line_240   
New Line.MVFeeder1.334  Bus1=1_333  Bus2=1_334  Length=10   units=m Linecode=Line_240   
New Line.MVFeeder1.335  Bus1=1_334  Bus2=1_335  Length=10   units=m Linecode=Line_240   
New Line.MVFeeder1.336  Bus1=1_335  Bus2=1_336  Length=10   units=m Linecode=Line_240   
New Line.MVFeeder1.337  Bus1=1_336  Bus2=1_337  Length=10   units=m Linecode=Line_240   
New Line.MVFeeder1.338  Bus1=1_337  Bus2=1_338  Length=10   units=m Linecode=Line_240   
New Line.MVFeeder1.339  Bus1=1_338  Bus2=1_339  Length=10   units=m Linecode=Line_240   
New Line.MVFeeder1.340  Bus1=1_339  Bus2=1_340  Length=10   units=m Linecode=Line_240   
New Line.MVFeeder1.341  Bus1=1_340  Bus2=1_341  Length=10   units=m Linecode=Line_240   