New Line.MVFeeder9.1    Bus1=Main_Busbar    Bus2=9_1    Length=10   units=m Linecode=Line_240   
New Line.MVFeeder9.2    Bus1=9_1    Bus2=9_2    Length=10   units=m Linecode=Line_240   
New Line.MVFeeder9.3    Bus1=9_2    Bus2=9_3    Length=10   units=m Linecode=Line_240   
New Line.MVFeeder9.4    Bus1=9_3    Bus2=9_4    Length=10   units=m Linecode=Line_240   
New Line.MVFeeder9.5    Bus1=9_4    Bus2=9_5    Length=10   units=m Linecode=Line_240   
New Line.MVFeeder9.6    Bus1=9_5    Bus2=9_6    Length=10   units=m Linecode=Line_240   
New Line.MVFeeder9.7    Bus1=9_6    Bus2=9_7    Length=10   units=m Linecode=Line_240   
New Line.MVFeeder9.8    Bus1=9_7    Bus2=9_8    Length=10   units=m Linecode=Line_240   
New Line.MVFeeder9.9    Bus1=9_8    Bus2=9_9    Length=10   units=m Linecode=Line_240   
New Line.MVFeeder9.10   Bus1=9_9    Bus2=9_10   Length=10   units=m Linecode=Line_240   
New Line.MVFeeder9.11   Bus1=9_10   Bus2=9_11   Length=10   units=m Linecode=Line_240   
New Line.MVFeeder9.12   Bus1=9_11   Bus2=9_12   Length=10   units=m Linecode=Line_240   
New Line.MVFeeder9.13   Bus1=9_12   Bus2=9_13   Length=10   units=m Linecode=Line_240   
New Line.MVFeeder9.14   Bus1=9_13   Bus2=9_14   Length=10   units=m Linecode=Line_240   
New Line.MVFeeder9.15   Bus1=9_14   Bus2=9_15   Length=10   units=m Linecode=Line_240   
New Line.MVFeeder9.16   Bus1=9_15   Bus2=9_16   Length=10   units=m Linecode=Line_240   
New Line.MVFeeder9.17   Bus1=9_16   Bus2=9_17   Length=10   units=m Linecode=Line_240   
New Line.MVFeeder9.18   Bus1=9_17   Bus2=9_18   Length=10   units=m Linecode=Line_240   
New Line.MVFeeder9.19   Bus1=9_18   Bus2=9_19   Length=10   units=m Linecode=Line_240   
New Line.MVFeeder9.20   Bus1=9_19   Bus2=9_20   Length=10   units=m Linecode=Line_240   
New Line.MVFeeder9.21   Bus1=9_20   Bus2=9_21   Length=10   units=m Linecode=Line_240   
                            
                            
New Line.MVLateral9_start_1 Bus1=9_20   Bus2=9_22   Length=10   units=m Linecode=Line_120    
New Line.MVLateral9.23  Bus1=9_22   Bus2=9_23   Length=10   units=m Linecode=Line_120    
New Line.MVLateral9.24  Bus1=9_23   Bus2=9_24   Length=10   units=m Linecode=Line_120    
New Line.MVLateral9.25  Bus1=9_24   Bus2=9_25   Length=10   units=m Linecode=Line_120    
New Line.MVLateral9.26  Bus1=9_25   Bus2=9_26   Length=10   units=m Linecode=Line_120    
New Line.MVLateral9.27  Bus1=9_26   Bus2=9_27   Length=10   units=m Linecode=Line_120    
New Line.MVLateral9.28  Bus1=9_27   Bus2=9_28   Length=10   units=m Linecode=Line_120    
New Line.MVLateral9.29  Bus1=9_28   Bus2=9_29   Length=10   units=m Linecode=Line_120    
New Line.MVLateral9.30  Bus1=9_29   Bus2=9_30   Length=10   units=m Linecode=Line_120    
New Line.MVLateral9.31  Bus1=9_30   Bus2=9_31   Length=10   units=m Linecode=Line_120    
New Line.MVLateral9.32  Bus1=9_31   Bus2=9_32   Length=10   units=m Linecode=Line_120    
New Line.MVLateral9.33  Bus1=9_32   Bus2=9_33   Length=10   units=m Linecode=Line_120    
New Line.MVLateral9.34  Bus1=9_33   Bus2=9_34   Length=10   units=m Linecode=Line_120    
New Line.MVLateral9.35  Bus1=9_34   Bus2=9_35   Length=10   units=m Linecode=Line_120    
New Line.MVLateral9.36  Bus1=9_35   Bus2=9_36   Length=10   units=m Linecode=Line_120    
New Line.MVLateral9.37  Bus1=9_36   Bus2=9_37   Length=10   units=m Linecode=Line_120    
New Line.MVLateral9.38  Bus1=9_37   Bus2=9_38   Length=10   units=m Linecode=Line_120    
New Line.MVLateral9.39  Bus1=9_38   Bus2=9_39   Length=10   units=m Linecode=Line_120    
New Line.MVLateral9.40  Bus1=9_39   Bus2=9_40   Length=10   units=m Linecode=Line_120    
New Line.MVLateral9.41  Bus1=9_40   Bus2=9_41   Length=10   units=m Linecode=Line_120    
New Line.MVLateral9.42  Bus1=9_41   Bus2=9_42   Length=10   units=m Linecode=Line_120    
New Line.MVLateral9.43  Bus1=9_42   Bus2=9_43   Length=10   units=m Linecode=Line_120    
New Line.MVLateral9.44  Bus1=9_43   Bus2=9_44   Length=10   units=m Linecode=Line_120    
New Line.MVLateral9.45  Bus1=9_44   Bus2=9_45   Length=10   units=m Linecode=Line_120    
New Line.MVLateral9.46  Bus1=9_45   Bus2=9_46   Length=10   units=m Linecode=Line_120    
New Line.MVLateral9.47  Bus1=9_46   Bus2=9_47   Length=10   units=m Linecode=Line_120    
New Line.MVLateral9.48  Bus1=9_47   Bus2=9_48   Length=10   units=m Linecode=Line_120    
New Line.MVLateral9.49  Bus1=9_48   Bus2=9_49   Length=10   units=m Linecode=Line_120    
New Line.MVLateral9.50  Bus1=9_49   Bus2=9_50   Length=10   units=m Linecode=Line_120    
New Line.MVLateral9.51  Bus1=9_50   Bus2=9_51   Length=10   units=m Linecode=Line_120    
New Line.MVLateral9.52  Bus1=9_51   Bus2=9_52   Length=10   units=m Linecode=Line_120    
New Line.MVLateral9.53  Bus1=9_52   Bus2=9_53   Length=10   units=m Linecode=Line_120    
New Line.MVLateral9.54  Bus1=9_53   Bus2=9_54   Length=10   units=m Linecode=Line_120    
New Line.MVLateral9.55  Bus1=9_54   Bus2=9_55   Length=10   units=m Linecode=Line_120    
New Line.MVLateral9.56  Bus1=9_55   Bus2=9_56   Length=10   units=m Linecode=Line_120    
New Line.MVLateral9.57  Bus1=9_56   Bus2=9_57   Length=10   units=m Linecode=Line_120    
New Line.MVLateral9.58  Bus1=9_57   Bus2=9_58   Length=10   units=m Linecode=Line_120    
New Line.MVLateral9.59  Bus1=9_58   Bus2=9_59   Length=10   units=m Linecode=Line_120    
New Line.MVLateral9.60  Bus1=9_59   Bus2=9_60   Length=10   units=m Linecode=Line_120    
New Line.MVLateral9.61  Bus1=9_60   Bus2=9_61   Length=10   units=m Linecode=Line_120    
New Line.MVLateral9.62  Bus1=9_61   Bus2=9_62   Length=10   units=m Linecode=Line_120    
New Line.MVLateral9.63  Bus1=9_62   Bus2=9_63   Length=10   units=m Linecode=Line_120    
New Line.MVLateral9.64  Bus1=9_63   Bus2=9_64   Length=10   units=m Linecode=Line_120    
New Line.MVLateral9.65  Bus1=9_64   Bus2=9_65   Length=10   units=m Linecode=Line_120    
New Line.MVLateral9.66  Bus1=9_65   Bus2=9_66   Length=10   units=m Linecode=Line_120    
New Line.MVLateral9.67  Bus1=9_66   Bus2=9_67   Length=10   units=m Linecode=Line_120    
New Line.MVLateral9.68  Bus1=9_67   Bus2=9_68   Length=10   units=m Linecode=Line_120    
New Line.MVLateral9.69  Bus1=9_68   Bus2=9_69   Length=10   units=m Linecode=Line_120    
New Line.MVLateral9.70  Bus1=9_69   Bus2=9_70   Length=10   units=m Linecode=Line_120    
New Line.MVLateral9.71  Bus1=9_70   Bus2=9_71   Length=10   units=m Linecode=Line_120    
New Line.MVLateral9.72  Bus1=9_71   Bus2=9_72   Length=10   units=m Linecode=Line_120    
New Line.MVLateral9.73  Bus1=9_72   Bus2=9_73   Length=10   units=m Linecode=Line_120    
New Line.MVLateral9.74  Bus1=9_73   Bus2=9_74   Length=10   units=m Linecode=Line_120    
New Line.MVLateral9.75  Bus1=9_74   Bus2=9_75   Length=10   units=m Linecode=Line_120    
                            
New Line.MVLateral9.86  Bus1=9_85   Bus2=9_86   Length=10   units=m Linecode=Line_120    
New Line.MVLateral9.87  Bus1=9_86   Bus2=9_87   Length=10   units=m Linecode=Line_120    
New Line.MVLateral9.88  Bus1=9_87   Bus2=9_88   Length=10   units=m Linecode=Line_120    
New Line.MVLateral9.89  Bus1=9_88   Bus2=9_89   Length=10   units=m Linecode=Line_120    
New Line.MVLateral9.90  Bus1=9_89   Bus2=9_90   Length=10   units=m Linecode=Line_120    
New Line.MVLateral9.91  Bus1=9_90   Bus2=9_91   Length=10   units=m Linecode=Line_120    
New Line.MVLateral9.92  Bus1=9_91   Bus2=9_92   Length=10   units=m Linecode=Line_120    
New Line.MVLateral9.93  Bus1=9_92   Bus2=9_93   Length=10   units=m Linecode=Line_120    
New Line.MVLateral9.94  Bus1=9_93   Bus2=9_94   Length=10   units=m Linecode=Line_120    
New Line.MVLateral9.95  Bus1=9_94   Bus2=9_95   Length=10   units=m Linecode=Line_120    
New Line.MVLateral9.96  Bus1=9_95   Bus2=9_96   Length=10   units=m Linecode=Line_120    
New Line.MVLateral9.97  Bus1=9_96   Bus2=9_97   Length=10   units=m Linecode=Line_120    
New Line.MVLateral9.98  Bus1=9_97   Bus2=9_98   Length=10   units=m Linecode=Line_120    
New Line.MVLateral9.99  Bus1=9_98   Bus2=9_99   Length=10   units=m Linecode=Line_120    
New Line.MVLateral9.100 Bus1=9_99   Bus2=9_100  Length=10   units=m Linecode=Line_120    
New Line.MVLateral9.101 Bus1=9_100  Bus2=9_101  Length=10   units=m Linecode=Line_120    
New Line.MVLateral9.102 Bus1=9_101  Bus2=9_102  Length=10   units=m Linecode=Line_120    
New Line.MVLateral9.103 Bus1=9_102  Bus2=9_103  Length=10   units=m Linecode=Line_120    
New Line.MVLateral9.104 Bus1=9_103  Bus2=9_104  Length=10   units=m Linecode=Line_120    
New Line.MVLateral9.105 Bus1=9_104  Bus2=9_105  Length=10   units=m Linecode=Line_120    
New Line.MVLateral9.106 Bus1=9_105  Bus2=9_106  Length=10   units=m Linecode=Line_120    
New Line.MVLateral9.107 Bus1=9_106  Bus2=9_107  Length=10   units=m Linecode=Line_120    
New Line.MVLateral9.108 Bus1=9_107  Bus2=9_108  Length=10   units=m Linecode=Line_120    
New Line.MVLateral9.109 Bus1=9_108  Bus2=9_109  Length=10   units=m Linecode=Line_120    
New Line.MVLateral9.110 Bus1=9_109  Bus2=9_110  Length=10   units=m Linecode=Line_120    
New Line.MVLateral9.111 Bus1=9_110  Bus2=9_111  Length=10   units=m Linecode=Line_120    
New Line.MVLateral9.112 Bus1=9_111  Bus2=9_112  Length=10   units=m Linecode=Line_120    
New Line.MVLateral9.113 Bus1=9_112  Bus2=9_113  Length=10   units=m Linecode=Line_120    
New Line.MVLateral9.114 Bus1=9_113  Bus2=9_114  Length=10   units=m Linecode=Line_120    
New Line.MVLateral9.115 Bus1=9_114  Bus2=9_115  Length=10   units=m Linecode=Line_120    
New Line.MVLateral9.116 Bus1=9_115  Bus2=9_116  Length=10   units=m Linecode=Line_120    
New Line.MVLateral9.117 Bus1=9_116  Bus2=9_117  Length=10   units=m Linecode=Line_120    
New Line.MVLateral9.118 Bus1=9_117  Bus2=9_118  Length=10   units=m Linecode=Line_120    
New Line.MVLateral9.119 Bus1=9_118  Bus2=9_119  Length=10   units=m Linecode=Line_120    
New Line.MVLateral9.120 Bus1=9_119  Bus2=9_120  Length=10   units=m Linecode=Line_120    
New Line.MVLateral9.121 Bus1=9_120  Bus2=9_121  Length=10   units=m Linecode=Line_120    
New Line.MVLateral9.122 Bus1=9_121  Bus2=9_122  Length=10   units=m Linecode=Line_120    
                            
New Line.MVLateral9.123 Bus1=9_122  Bus2=9_123  Length=10   units=m Linecode=Line_120    
New Line.MVLateral9.124 Bus1=9_123  Bus2=9_124  Length=10   units=m Linecode=Line_120    
New Line.MVLateral9.125 Bus1=9_124  Bus2=9_125  Length=10   units=m Linecode=Line_120    
New Line.MVLateral9.126 Bus1=9_125  Bus2=9_126  Length=10   units=m Linecode=Line_120    
New Line.MVLateral9.127 Bus1=9_126  Bus2=9_127  Length=10   units=m Linecode=Line_120    
New Line.MVLateral9.128 Bus1=9_127  Bus2=9_128  Length=10   units=m Linecode=Line_120    
New Line.MVLateral9.129 Bus1=9_128  Bus2=9_129  Length=10   units=m Linecode=Line_120    
New Line.MVLateral9.130 Bus1=9_129  Bus2=9_130  Length=10   units=m Linecode=Line_120    
                            
New Line.MVLateral9.131 Bus1=9_130  Bus2=9_131  Length=10   units=m Linecode=Line_120    
New Line.MVLateral9.132 Bus1=9_131  Bus2=9_132  Length=10   units=m Linecode=Line_120    
New Line.MVLateral9.133 Bus1=9_132  Bus2=9_133  Length=10   units=m Linecode=Line_120    
New Line.MVLateral9.134 Bus1=9_133  Bus2=9_134  Length=10   units=m Linecode=Line_120    
New Line.MVLateral9.135 Bus1=9_134  Bus2=9_135  Length=10   units=m Linecode=Line_120    
New Line.MVLateral9.136 Bus1=9_135  Bus2=9_136  Length=10   units=m Linecode=Line_120    
New Line.MVLateral9.137 Bus1=9_136  Bus2=9_137  Length=10   units=m Linecode=Line_120    
New Line.MVLateral9.138 Bus1=9_137  Bus2=9_138  Length=10   units=m Linecode=Line_120    
New Line.MVLateral9.139 Bus1=9_138  Bus2=9_139  Length=10   units=m Linecode=Line_120    
New Line.MVLateral9.140 Bus1=9_139  Bus2=9_140  Length=10   units=m Linecode=Line_120    
New Line.MVLateral9.141 Bus1=9_140  Bus2=9_141  Length=10   units=m Linecode=Line_120    
New Line.MVLateral9_end_1   Bus1=9_141  Bus2=9_142  Length=10   units=m Linecode=Line_120    
                            
New Line.MVFeeder9.143  Bus1=9_21   Bus2=9_143  Length=10   units=m Linecode=Line_240   
New Line.MVFeeder9.144  Bus1=9_143  Bus2=9_144  Length=10   units=m Linecode=Line_240   
New Line.MVFeeder9.145  Bus1=9_144  Bus2=9_145  Length=10   units=m Linecode=Line_240   
New Line.MVFeeder9.146  Bus1=9_145  Bus2=9_146  Length=10   units=m Linecode=Line_240   
New Line.MVFeeder9.147  Bus1=9_146  Bus2=9_147  Length=10   units=m Linecode=Line_240   
New Line.MVFeeder9.148  Bus1=9_147  Bus2=9_148  Length=10   units=m Linecode=Line_240   
New Line.MVFeeder9.149  Bus1=9_148  Bus2=9_149  Length=10   units=m Linecode=Line_240   
New Line.MVFeeder9.150  Bus1=9_149  Bus2=9_150  Length=10   units=m Linecode=Line_240   
New Line.MVFeeder9.151  Bus1=9_150  Bus2=9_151  Length=10   units=m Linecode=Line_240   
New Line.MVFeeder9.152  Bus1=9_151  Bus2=9_152  Length=10   units=m Linecode=Line_240   
New Line.MVFeeder9.153  Bus1=9_152  Bus2=9_153  Length=10   units=m Linecode=Line_240   
New Line.MVFeeder9.154  Bus1=9_153  Bus2=9_154  Length=10   units=m Linecode=Line_240   
New Line.MVFeeder9.155  Bus1=9_154  Bus2=9_155  Length=10   units=m Linecode=Line_240   
New Line.MVFeeder9.156  Bus1=9_155  Bus2=9_156  Length=10   units=m Linecode=Line_240   
New Line.MVFeeder9.157  Bus1=9_156  Bus2=9_157  Length=10   units=m Linecode=Line_240   
New Line.MVFeeder9.158  Bus1=9_157  Bus2=9_158  Length=10   units=m Linecode=Line_240   
New Line.MVFeeder9.159  Bus1=9_158  Bus2=9_159  Length=10   units=m Linecode=Line_240   
New Line.MVFeeder9.160  Bus1=9_159  Bus2=9_160  Length=10   units=m Linecode=Line_240   
New Line.MVFeeder9.161  Bus1=9_160  Bus2=9_161  Length=10   units=m Linecode=Line_240   
New Line.MVFeeder9.162  Bus1=9_161  Bus2=9_162  Length=10   units=m Linecode=Line_240   
New Line.MVFeeder9.163  Bus1=9_162  Bus2=9_163  Length=10   units=m Linecode=Line_240   
New Line.MVFeeder9.164  Bus1=9_163  Bus2=9_164  Length=10   units=m Linecode=Line_240   
New Line.MVFeeder9.165  Bus1=9_164  Bus2=9_165  Length=10   units=m Linecode=Line_240   
New Line.MVFeeder9.166  Bus1=9_165  Bus2=9_166  Length=10   units=m Linecode=Line_240   
New Line.MVFeeder9.167  Bus1=9_166  Bus2=9_167  Length=10   units=m Linecode=Line_240   
New Line.MVFeeder9.168  Bus1=9_167  Bus2=9_168  Length=10   units=m Linecode=Line_240   
New Line.MVFeeder9.169  Bus1=9_168  Bus2=9_169  Length=10   units=m Linecode=Line_240   
New Line.MVFeeder9.170  Bus1=9_169  Bus2=9_170  Length=10   units=m Linecode=Line_240   
New Line.MVFeeder9.171  Bus1=9_170  Bus2=9_171  Length=10   units=m Linecode=Line_240   
New Line.MVFeeder9.172  Bus1=9_171  Bus2=9_172  Length=10   units=m Linecode=Line_240   
New Line.MVFeeder9.173  Bus1=9_172  Bus2=9_173  Length=10   units=m Linecode=Line_240   
New Line.MVFeeder9.174  Bus1=9_173  Bus2=9_174  Length=10   units=m Linecode=Line_240   
New Line.MVFeeder9.175  Bus1=9_174  Bus2=9_175  Length=10   units=m Linecode=Line_240   
New Line.MVFeeder9.176  Bus1=9_175  Bus2=9_176  Length=10   units=m Linecode=Line_240   
New Line.MVFeeder9.177  Bus1=9_176  Bus2=9_177  Length=10   units=m Linecode=Line_240   
New Line.MVFeeder9.178  Bus1=9_177  Bus2=9_178  Length=10   units=m Linecode=Line_240   
New Line.MVFeeder9.179  Bus1=9_178  Bus2=9_179  Length=10   units=m Linecode=Line_240   
New Line.MVFeeder9.180  Bus1=9_179  Bus2=9_180  Length=10   units=m Linecode=Line_240   
New Line.MVFeeder9.181  Bus1=9_180  Bus2=9_181  Length=10   units=m Linecode=Line_240   
New Line.MVFeeder9.182  Bus1=9_181  Bus2=9_182  Length=10   units=m Linecode=Line_240   
New Line.MVFeeder9.183  Bus1=9_182  Bus2=9_183  Length=10   units=m Linecode=Line_240   
                            
New Line.MVLateral9_start_2 Bus1=9_182  Bus2=9_184  Length=10   units=m Linecode=Line_120    
New Line.MVLateral9.185 Bus1=9_184  Bus2=9_185  Length=10   units=m Linecode=Line_120    
New Line.MVLateral9.186 Bus1=9_185  Bus2=9_186  Length=10   units=m Linecode=Line_120    
New Line.MVLateral9.187 Bus1=9_186  Bus2=9_187  Length=10   units=m Linecode=Line_120    
New Line.MVLateral9.188 Bus1=9_187  Bus2=9_188  Length=10   units=m Linecode=Line_120    
New Line.MVLateral9.189 Bus1=9_188  Bus2=9_189  Length=10   units=m Linecode=Line_120    
New Line.MVLateral9.190 Bus1=9_189  Bus2=9_190  Length=10   units=m Linecode=Line_120    
New Line.MVLateral9.191 Bus1=9_190  Bus2=9_191  Length=10   units=m Linecode=Line_120    
New Line.MVLateral9.192 Bus1=9_191  Bus2=9_192  Length=10   units=m Linecode=Line_120    
New Line.MVLateral9.193 Bus1=9_192  Bus2=9_193  Length=10   units=m Linecode=Line_120    
New Line.MVLateral9.194 Bus1=9_193  Bus2=9_194  Length=10   units=m Linecode=Line_120    
New Line.MVLateral9.195 Bus1=9_194  Bus2=9_195  Length=10   units=m Linecode=Line_120    
New Line.MVLateral9.196 Bus1=9_195  Bus2=9_196  Length=10   units=m Linecode=Line_120    
New Line.MVLateral9.197 Bus1=9_196  Bus2=9_197  Length=10   units=m Linecode=Line_120    
New Line.MVLateral9.198 Bus1=9_197  Bus2=9_198  Length=10   units=m Linecode=Line_120    
New Line.MVLateral9.199 Bus1=9_198  Bus2=9_199  Length=10   units=m Linecode=Line_120    
New Line.MVLateral9.200 Bus1=9_199  Bus2=9_200  Length=10   units=m Linecode=Line_120    
New Line.MVLateral9.201 Bus1=9_200  Bus2=9_201  Length=10   units=m Linecode=Line_120    
New Line.MVLateral9.202 Bus1=9_201  Bus2=9_202  Length=10   units=m Linecode=Line_120    
New Line.MVLateral9.203 Bus1=9_202  Bus2=9_203  Length=10   units=m Linecode=Line_120    
New Line.MVLateral9.204 Bus1=9_203  Bus2=9_204  Length=10   units=m Linecode=Line_120    
New Line.MVLateral9.205 Bus1=9_204  Bus2=9_205  Length=10   units=m Linecode=Line_120    
New Line.MVLateral9.206 Bus1=9_205  Bus2=9_206  Length=10   units=m Linecode=Line_120    
New Line.MVLateral9.207 Bus1=9_206  Bus2=9_207  Length=10   units=m Linecode=Line_120    
New Line.MVLateral9.208 Bus1=9_207  Bus2=9_208  Length=10   units=m Linecode=Line_120    
New Line.MVLateral9.209 Bus1=9_208  Bus2=9_209  Length=10   units=m Linecode=Line_120    
New Line.MVLateral9.210 Bus1=9_209  Bus2=9_210  Length=10   units=m Linecode=Line_120    
New Line.MVLateral9.211 Bus1=9_210  Bus2=9_211  Length=10   units=m Linecode=Line_120    
New Line.MVLateral9.212 Bus1=9_211  Bus2=9_212  Length=10   units=m Linecode=Line_120    
New Line.MVLateral9.213 Bus1=9_212  Bus2=9_213  Length=10   units=m Linecode=Line_120    
New Line.MVLateral9.214 Bus1=9_213  Bus2=9_214  Length=10   units=m Linecode=Line_120    
New Line.MVLateral9.215 Bus1=9_214  Bus2=9_215  Length=10   units=m Linecode=Line_120    
New Line.MVLateral9.216 Bus1=9_215  Bus2=9_216  Length=10   units=m Linecode=Line_120    
New Line.MVLateral9.217 Bus1=9_216  Bus2=9_217  Length=10   units=m Linecode=Line_120    
New Line.MVLateral9.218 Bus1=9_217  Bus2=9_218  Length=10   units=m Linecode=Line_120    
New Line.MVLateral9.219 Bus1=9_218  Bus2=9_219  Length=10   units=m Linecode=Line_120    
New Line.MVLateral9.220 Bus1=9_219  Bus2=9_220  Length=10   units=m Linecode=Line_120    
New Line.MVLateral9.221 Bus1=9_220  Bus2=9_221  Length=10   units=m Linecode=Line_120    
New Line.MVLateral9.222 Bus1=9_221  Bus2=9_222  Length=10   units=m Linecode=Line_120    
New Line.MVLateral9.223 Bus1=9_222  Bus2=9_223  Length=10   units=m Linecode=Line_120    
New Line.MVLateral9.224 Bus1=9_223  Bus2=9_224  Length=10   units=m Linecode=Line_120    
New Line.MVLateral9.225 Bus1=9_224  Bus2=9_225  Length=10   units=m Linecode=Line_120    
New Line.MVLateral9.226 Bus1=9_225  Bus2=9_226  Length=10   units=m Linecode=Line_120    
New Line.MVLateral9.227 Bus1=9_226  Bus2=9_227  Length=10   units=m Linecode=Line_120    
New Line.MVLateral9.228 Bus1=9_227  Bus2=9_228  Length=10   units=m Linecode=Line_120    
New Line.MVLateral9.229 Bus1=9_228  Bus2=9_229  Length=10   units=m Linecode=Line_120    
New Line.MVLateral9.230 Bus1=9_229  Bus2=9_230  Length=10   units=m Linecode=Line_120    
New Line.MVLateral9.231 Bus1=9_230  Bus2=9_231  Length=10   units=m Linecode=Line_120    
New Line.MVLateral9.232 Bus1=9_231  Bus2=9_232  Length=10   units=m Linecode=Line_120    
New Line.MVLateral9.233 Bus1=9_232  Bus2=9_233  Length=10   units=m Linecode=Line_120    
New Line.MVLateral9.234 Bus1=9_233  Bus2=9_234  Length=10   units=m Linecode=Line_120    
New Line.MVLateral9.235 Bus1=9_234  Bus2=9_235  Length=10   units=m Linecode=Line_120    
New Line.MVLateral9.236 Bus1=9_235  Bus2=9_236  Length=10   units=m Linecode=Line_120    
New Line.MVLateral9.237 Bus1=9_236  Bus2=9_237  Length=10   units=m Linecode=Line_120    
New Line.MVLateral9.238 Bus1=9_237  Bus2=9_238  Length=10   units=m Linecode=Line_120    
New Line.MVLateral9.239 Bus1=9_238  Bus2=9_239  Length=10   units=m Linecode=Line_120    
New Line.MVLateral9.240 Bus1=9_239  Bus2=9_240  Length=10   units=m Linecode=Line_120    
New Line.MVLateral9.241 Bus1=9_240  Bus2=9_241  Length=10   units=m Linecode=Line_120    
New Line.MVLateral9.242 Bus1=9_241  Bus2=9_242  Length=10   units=m Linecode=Line_120    
New Line.MVLateral9.243 Bus1=9_242  Bus2=9_243  Length=10   units=m Linecode=Line_120    
New Line.MVLateral9.244 Bus1=9_243  Bus2=9_244  Length=10   units=m Linecode=Line_120    
New Line.MVLateral9.245 Bus1=9_244  Bus2=9_245  Length=10   units=m Linecode=Line_120    
New Line.MVLateral9.246 Bus1=9_245  Bus2=9_246  Length=10   units=m Linecode=Line_120    
New Line.MVLateral9.247 Bus1=9_246  Bus2=9_247  Length=10   units=m Linecode=Line_120    
New Line.MVLateral9.248 Bus1=9_247  Bus2=9_248  Length=10   units=m Linecode=Line_120    
New Line.MVLateral9.249 Bus1=9_248  Bus2=9_249  Length=10   units=m Linecode=Line_120    
New Line.MVLateral9.250 Bus1=9_249  Bus2=9_250  Length=10   units=m Linecode=Line_120    
New Line.MVLateral9.251 Bus1=9_250  Bus2=9_251  Length=10   units=m Linecode=Line_120    
New Line.MVLateral9.252 Bus1=9_251  Bus2=9_252  Length=10   units=m Linecode=Line_120    
New Line.MVLateral9.253 Bus1=9_252  Bus2=9_253  Length=10   units=m Linecode=Line_120    
New Line.MVLateral9.254 Bus1=9_253  Bus2=9_254  Length=10   units=m Linecode=Line_120    
New Line.MVLateral9.255 Bus1=9_254  Bus2=9_255  Length=10   units=m Linecode=Line_120    
New Line.MVLateral9.256 Bus1=9_255  Bus2=9_256  Length=10   units=m Linecode=Line_120    
New Line.MVLateral9.257 Bus1=9_256  Bus2=9_257  Length=10   units=m Linecode=Line_120    
New Line.MVLateral9.258 Bus1=9_257  Bus2=9_258  Length=10   units=m Linecode=Line_120    
New Line.MVLateral9.259 Bus1=9_258  Bus2=9_259  Length=10   units=m Linecode=Line_120    
New Line.MVLateral9.260 Bus1=9_259  Bus2=9_260  Length=10   units=m Linecode=Line_120    
New Line.MVLateral9.261 Bus1=9_260  Bus2=9_261  Length=10   units=m Linecode=Line_120    
New Line.MVLateral9.262 Bus1=9_261  Bus2=9_262  Length=10   units=m Linecode=Line_120    
New Line.MVLateral9.263 Bus1=9_262  Bus2=9_263  Length=10   units=m Linecode=Line_120    
New Line.MVLateral9.264 Bus1=9_263  Bus2=9_264  Length=10   units=m Linecode=Line_120    
New Line.MVLateral9.265 Bus1=9_264  Bus2=9_265  Length=10   units=m Linecode=Line_120    
New Line.MVLateral9.266 Bus1=9_265  Bus2=9_266  Length=10   units=m Linecode=Line_120    
New Line.MVLateral9.267 Bus1=9_266  Bus2=9_267  Length=10   units=m Linecode=Line_120    
New Line.MVLateral9.268 Bus1=9_267  Bus2=9_268  Length=10   units=m Linecode=Line_120    
New Line.MVLateral9.269 Bus1=9_268  Bus2=9_269  Length=10   units=m Linecode=Line_120    
New Line.MVLateral9.270 Bus1=9_269  Bus2=9_270  Length=10   units=m Linecode=Line_120    
New Line.MVLateral9.271 Bus1=9_270  Bus2=9_271  Length=10   units=m Linecode=Line_120    
New Line.MVLateral9.272 Bus1=9_271  Bus2=9_272  Length=10   units=m Linecode=Line_120    
New Line.MVLateral9.273 Bus1=9_272  Bus2=9_273  Length=10   units=m Linecode=Line_120    
New Line.MVLateral9.274 Bus1=9_273  Bus2=9_274  Length=10   units=m Linecode=Line_120    
New Line.MVLateral9.275 Bus1=9_274  Bus2=9_275  Length=10   units=m Linecode=Line_120    
New Line.MVLateral9.276 Bus1=9_275  Bus2=9_276  Length=10   units=m Linecode=Line_120    
New Line.MVLateral9.277 Bus1=9_276  Bus2=9_277  Length=10   units=m Linecode=Line_120    
New Line.MVLateral9.278 Bus1=9_277  Bus2=9_278  Length=10   units=m Linecode=Line_120    
New Line.MVLateral9.279 Bus1=9_278  Bus2=9_279  Length=10   units=m Linecode=Line_120    
New Line.MVLateral9.280 Bus1=9_279  Bus2=9_280  Length=10   units=m Linecode=Line_120    
New Line.MVLateral9.281 Bus1=9_280  Bus2=9_281  Length=10   units=m Linecode=Line_120    
New Line.MVLateral9.282 Bus1=9_281  Bus2=9_282  Length=10   units=m Linecode=Line_120    
New Line.MVLateral9.283 Bus1=9_282  Bus2=9_283  Length=10   units=m Linecode=Line_120    
New Line.MVLateral9.284 Bus1=9_283  Bus2=9_284  Length=10   units=m Linecode=Line_120    
New Line.MVLateral9.285 Bus1=9_284  Bus2=9_285  Length=10   units=m Linecode=Line_120    
New Line.MVLateral9.286 Bus1=9_285  Bus2=9_286  Length=10   units=m Linecode=Line_120    
New Line.MVLateral9.287 Bus1=9_286  Bus2=9_287  Length=10   units=m Linecode=Line_120    
New Line.MVLateral9.288 Bus1=9_287  Bus2=9_288  Length=10   units=m Linecode=Line_120    
New Line.MVLateral9.289 Bus1=9_288  Bus2=9_289  Length=10   units=m Linecode=Line_120    
New Line.MVLateral9.290 Bus1=9_289  Bus2=9_290  Length=10   units=m Linecode=Line_120    
New Line.MVLateral9.291 Bus1=9_290  Bus2=9_291  Length=10   units=m Linecode=Line_120    
New Line.MVLateral9.292 Bus1=9_291  Bus2=9_292  Length=10   units=m Linecode=Line_120    
New Line.MVLateral9.293 Bus1=9_292  Bus2=9_293  Length=10   units=m Linecode=Line_120    
New Line.MVLateral9.294 Bus1=9_293  Bus2=9_294  Length=10   units=m Linecode=Line_120    
New Line.MVLateral9.295 Bus1=9_294  Bus2=9_295  Length=10   units=m Linecode=Line_120    
New Line.MVLateral9.296 Bus1=9_295  Bus2=9_296  Length=10   units=m Linecode=Line_120    
New Line.MVLateral9.297 Bus1=9_296  Bus2=9_297  Length=10   units=m Linecode=Line_120    
New Line.MVLateral9.298 Bus1=9_297  Bus2=9_298  Length=10   units=m Linecode=Line_120    
New Line.MVLateral9.299 Bus1=9_298  Bus2=9_299  Length=10   units=m Linecode=Line_120    
New Line.MVLateral9.300 Bus1=9_299  Bus2=9_300  Length=10   units=m Linecode=Line_120    
New Line.MVLateral9.301 Bus1=9_300  Bus2=9_301  Length=10   units=m Linecode=Line_120    
New Line.MVLateral9.302 Bus1=9_301  Bus2=9_302  Length=10   units=m Linecode=Line_120    
New Line.MVLateral9.303 Bus1=9_302  Bus2=9_303  Length=10   units=m Linecode=Line_120    
New Line.MVLateral9_end_2   Bus1=9_303  Bus2=9_304  Length=10   units=m Linecode=Line_120    
                            
New Line.MVFeeder9.305  Bus1=9_183  Bus2=9_305  Length=10   units=m Linecode=Line_240   
New Line.MVFeeder9.306  Bus1=9_305  Bus2=9_306  Length=10   units=m Linecode=Line_240   
New Line.MVFeeder9.307  Bus1=9_306  Bus2=9_307  Length=10   units=m Linecode=Line_240   
New Line.MVFeeder9.308  Bus1=9_307  Bus2=9_308  Length=10   units=m Linecode=Line_240   
New Line.MVFeeder9.309  Bus1=9_308  Bus2=9_309  Length=10   units=m Linecode=Line_240   
New Line.MVFeeder9.310  Bus1=9_309  Bus2=9_310  Length=10   units=m Linecode=Line_240   
New Line.MVFeeder9.311  Bus1=9_310  Bus2=9_311  Length=10   units=m Linecode=Line_240   
New Line.MVFeeder9.312  Bus1=9_311  Bus2=9_312  Length=10   units=m Linecode=Line_240   
New Line.MVFeeder9.313  Bus1=9_312  Bus2=9_313  Length=10   units=m Linecode=Line_240   
New Line.MVFeeder9.314  Bus1=9_313  Bus2=9_314  Length=10   units=m Linecode=Line_240   
New Line.MVFeeder9.315  Bus1=9_314  Bus2=9_315  Length=10   units=m Linecode=Line_240   
New Line.MVFeeder9.316  Bus1=9_315  Bus2=9_316  Length=10   units=m Linecode=Line_240   
New Line.MVFeeder9.317  Bus1=9_316  Bus2=9_317  Length=10   units=m Linecode=Line_240   
New Line.MVFeeder9.318  Bus1=9_317  Bus2=9_318  Length=10   units=m Linecode=Line_240   
New Line.MVFeeder9.319  Bus1=9_318  Bus2=9_319  Length=10   units=m Linecode=Line_240   
New Line.MVFeeder9.320  Bus1=9_319  Bus2=9_320  Length=10   units=m Linecode=Line_240   
New Line.MVFeeder9.321  Bus1=9_320  Bus2=9_321  Length=10   units=m Linecode=Line_240   
New Line.MVFeeder9.322  Bus1=9_321  Bus2=9_322  Length=10   units=m Linecode=Line_240   
New Line.MVFeeder9.323  Bus1=9_322  Bus2=9_323  Length=10   units=m Linecode=Line_240   
New Line.MVFeeder9.324  Bus1=9_323  Bus2=9_324  Length=10   units=m Linecode=Line_240   
New Line.MVFeeder9.325  Bus1=9_324  Bus2=9_325  Length=10   units=m Linecode=Line_240   
New Line.MVFeeder9.326  Bus1=9_325  Bus2=9_326  Length=10   units=m Linecode=Line_240   
New Line.MVFeeder9.327  Bus1=9_326  Bus2=9_327  Length=10   units=m Linecode=Line_240   
New Line.MVFeeder9.328  Bus1=9_327  Bus2=9_328  Length=10   units=m Linecode=Line_240   
New Line.MVFeeder9.329  Bus1=9_328  Bus2=9_329  Length=10   units=m Linecode=Line_240   
New Line.MVFeeder9.330  Bus1=9_329  Bus2=9_330  Length=10   units=m Linecode=Line_240   
New Line.MVFeeder9.331  Bus1=9_330  Bus2=9_331  Length=10   units=m Linecode=Line_240   
New Line.MVFeeder9.332  Bus1=9_331  Bus2=9_332  Length=10   units=m Linecode=Line_240   
New Line.MVFeeder9.333  Bus1=9_332  Bus2=9_333  Length=10   units=m Linecode=Line_240   
New Line.MVFeeder9.334  Bus1=9_333  Bus2=9_334  Length=10   units=m Linecode=Line_240   
New Line.MVFeeder9.335  Bus1=9_334  Bus2=9_335  Length=10   units=m Linecode=Line_240   
New Line.MVFeeder9.336  Bus1=9_335  Bus2=9_336  Length=10   units=m Linecode=Line_240   
New Line.MVFeeder9.337  Bus1=9_336  Bus2=9_337  Length=10   units=m Linecode=Line_240   
New Line.MVFeeder9.338  Bus1=9_337  Bus2=9_338  Length=10   units=m Linecode=Line_240   
New Line.MVFeeder9.339  Bus1=9_338  Bus2=9_339  Length=10   units=m Linecode=Line_240   
New Line.MVFeeder9.340  Bus1=9_339  Bus2=9_340  Length=10   units=m Linecode=Line_240   
New Line.MVFeeder9.341  Bus1=9_340  Bus2=9_341  Length=10   units=m Linecode=Line_240   