New Line.Consumer2_1 Bus1=2_49.1 Bus2=Consumer2_1.1 Length=0.21 units=km Linecode=Line_25
New Line.Consumer2_2 Bus1=2_64.2 Bus2=Consumer2_2.1 Length=0.21 units=km Linecode=Line_25
New Line.Consumer2_3 Bus1=2_79.3 Bus2=Consumer2_3.1 Length=0.21 units=km Linecode=Line_25
New Line.Consumer2_4 Bus1=2_94.1 Bus2=Consumer2_4.1 Length=0.21 units=km Linecode=Line_25
New Line.Consumer2_5 Bus1=2_109.2 Bus2=Consumer2_5.1 Length=0.21 units=km Linecode=Line_25
New Line.Consumer2_6 Bus1=2_124.3 Bus2=Consumer2_6.1 Length=0.21 units=km Linecode=Line_25
New Line.Consumer2_7 Bus1=2_139.1 Bus2=Consumer2_7.1 Length=0.21 units=km Linecode=Line_25
New Line.Consumer2_8 Bus1=2_154.2 Bus2=Consumer2_8.1 Length=0.21 units=km Linecode=Line_25
New Line.Consumer2_9 Bus1=2_169.3 Bus2=Consumer2_9.1 Length=0.21 units=km Linecode=Line_25
New Line.Consumer2_10 Bus1=2_184.1 Bus2=Consumer2_10.1 Length=0.21 units=km Linecode=Line_25
New Line.Consumer2_11 Bus1=2_199.2 Bus2=Consumer2_11.1 Length=0.21 units=km Linecode=Line_25
New Line.Consumer2_12 Bus1=2_215.3 Bus2=Consumer2_12.1 Length=0.21 units=km Linecode=Line_25


New Line.Consumer2_13 Bus1=2_330.1 Bus2=Consumer2_13.1 Length=0.21 units=km Linecode=Line_25
New Line.Consumer2_14 Bus1=2_334.2 Bus2=Consumer2_14.1 Length=0.21 units=km Linecode=Line_25
New Line.Consumer2_15 Bus1=2_338.3 Bus2=Consumer2_15.1 Length=0.21 units=km Linecode=Line_25
New Line.Consumer2_16 Bus1=2_342.1 Bus2=Consumer2_16.1 Length=0.21 units=km Linecode=Line_25
New Line.Consumer2_17 Bus1=2_346.2 Bus2=Consumer2_17.1 Length=0.21 units=km Linecode=Line_25
New Line.Consumer2_18 Bus1=2_350.3 Bus2=Consumer2_18.1 Length=0.21 units=km Linecode=Line_25
New Line.Consumer2_19 Bus1=2_354.1 Bus2=Consumer2_19.1 Length=0.21 units=km Linecode=Line_25
New Line.Consumer2_20 Bus1=2_358.2 Bus2=Consumer2_20.1 Length=0.21 units=km Linecode=Line_25
New Line.Consumer2_21 Bus1=2_362.3 Bus2=Consumer2_21.1 Length=0.21 units=km Linecode=Line_25
New Line.Consumer2_22 Bus1=2_366.1 Bus2=Consumer2_22.1 Length=0.21 units=km Linecode=Line_25
New Line.Consumer2_23 Bus1=2_370.2 Bus2=Consumer2_23.1 Length=0.21 units=km Linecode=Line_25
New Line.Consumer2_24 Bus1=2_374.3 Bus2=Consumer2_24.1 Length=0.21 units=km Linecode=Line_25
New Line.Consumer2_25 Bus1=2_378.1 Bus2=Consumer2_25.1 Length=0.21 units=km Linecode=Line_25
New Line.Consumer2_26 Bus1=2_382.2 Bus2=Consumer2_26.1 Length=0.21 units=km Linecode=Line_25
New Line.Consumer2_27 Bus1=2_386.3 Bus2=Consumer2_27.1 Length=0.21 units=km Linecode=Line_25
New Line.Consumer2_28 Bus1=2_390.1 Bus2=Consumer2_28.1 Length=0.21 units=km Linecode=Line_25
New Line.Consumer2_29 Bus1=2_394.2 Bus2=Consumer2_29.1 Length=0.21 units=km Linecode=Line_25
New Line.Consumer2_30 Bus1=2_398.3 Bus2=Consumer2_30.1 Length=0.21 units=km Linecode=Line_25
New Line.Consumer2_31 Bus1=2_402.1 Bus2=Consumer2_31.1 Length=0.21 units=km Linecode=Line_25
New Line.Consumer2_32 Bus1=2_406.2 Bus2=Consumer2_32.1 Length=0.21 units=km Linecode=Line_25
New Line.Consumer2_33 Bus1=2_410.3 Bus2=Consumer2_33.1 Length=0.21 units=km Linecode=Line_25
New Line.Consumer2_34 Bus1=2_414.1 Bus2=Consumer2_34.1 Length=0.21 units=km Linecode=Line_25
New Line.Consumer2_35 Bus1=2_418.2 Bus2=Consumer2_35.1 Length=0.21 units=km Linecode=Line_25
New Line.Consumer2_36 Bus1=2_422.3 Bus2=Consumer2_36.1 Length=0.21 units=km Linecode=Line_25
New Line.Consumer2_37 Bus1=2_426.1 Bus2=Consumer2_37.1 Length=0.21 units=km Linecode=Line_25
New Line.Consumer2_38 Bus1=2_430.2 Bus2=Consumer2_38.1 Length=0.21 units=km Linecode=Line_25
New Line.Consumer2_39 Bus1=2_434.3 Bus2=Consumer2_39.1 Length=0.21 units=km Linecode=Line_25 
New Line.Consumer2_40 Bus1=2_438.1 Bus2=Consumer2_40.1 Length=0.21 units=km Linecode=Line_25 
New Line.Consumer2_41 Bus1=2_442.2 Bus2=Consumer2_41.1 Length=0.21 units=km Linecode=Line_25 
New Line.Consumer2_42 Bus1=2_448.3 Bus2=Consumer2_42.1 Length=0.21 units=km Linecode=Line_25 
New Line.Consumer2_43 Bus1=2_452.1 Bus2=Consumer2_43.1 Length=0.21 units=km Linecode=Line_25 
New Line.Consumer2_44 Bus1=2_456.2 Bus2=Consumer2_44.1 Length=0.21 units=km Linecode=Line_25 
New Line.Consumer2_45 Bus1=2_460.3 Bus2=Consumer2_45.1 Length=0.21 units=km Linecode=Line_25 
New Line.Consumer2_46 Bus1=2_464.1 Bus2=Consumer2_46.1 Length=0.21 units=km Linecode=Line_25 
New Line.Consumer2_47 Bus1=2_468.2 Bus2=Consumer2_47.1 Length=0.21 units=km Linecode=Line_25 
New Line.Consumer2_48 Bus1=2_472.3 Bus2=Consumer2_48.1 Length=0.21 units=km Linecode=Line_25 
New Line.Consumer2_49 Bus1=2_476.1 Bus2=Consumer2_49.1 Length=0.21 units=km Linecode=Line_25 
New Line.Consumer2_50 Bus1=2_480.2 Bus2=Consumer2_50.1 Length=0.21 units=km Linecode=Line_25 
New Line.Consumer2_51 Bus1=2_484.3 Bus2=Consumer2_51.1 Length=0.21 units=km Linecode=Line_25 


New Line.Consumer2_52 Bus1=2_609.1 Bus2=Consumer2_52.1 Length=0.21 units=km Linecode=Line_25
New Line.Consumer2_53 Bus1=2_614.2 Bus2=Consumer2_53.1 Length=0.21 units=km Linecode=Line_25 
New Line.Consumer2_54 Bus1=2_619.3 Bus2=Consumer2_54.1 Length=0.21 units=km Linecode=Line_25
New Line.Consumer2_55 Bus1=2_624.1 Bus2=Consumer2_55.1 Length=0.21 units=km Linecode=Line_25 
New Line.Consumer2_56 Bus1=2_629.2 Bus2=Consumer2_56.1 Length=0.21 units=km Linecode=Line_25 
New Line.Consumer2_57 Bus1=2_634.3 Bus2=Consumer2_57.1 Length=0.21 units=km Linecode=Line_25 
New Line.Consumer2_58 Bus1=2_639.1 Bus2=Consumer2_58.1 Length=0.21 units=km Linecode=Line_25 
New Line.Consumer2_59 Bus1=2_644.2 Bus2=Consumer2_59.1 Length=0.21 units=km Linecode=Line_25 
New Line.Consumer2_60 Bus1=2_649.3 Bus2=Consumer2_60.1 Length=0.21 units=km Linecode=Line_25 
New Line.Consumer2_61 Bus1=2_654.1 Bus2=Consumer2_61.1 Length=0.21 units=km Linecode=Line_25 
New Line.Consumer2_62 Bus1=2_659.2 Bus2=Consumer2_62.1 Length=0.21 units=km Linecode=Line_25 
New Line.Consumer2_63 Bus1=2_664.3 Bus2=Consumer2_63.1 Length=0.21 units=km Linecode=Line_25 
New Line.Consumer2_64 Bus1=2_669.1 Bus2=Consumer2_64.1 Length=0.21 units=km Linecode=Line_25 
New Line.Consumer2_65 Bus1=2_674.2 Bus2=Consumer2_65.1 Length=0.21 units=km Linecode=Line_25 
New Line.Consumer2_66 Bus1=2_679.3 Bus2=Consumer2_66.1 Length=0.21 units=km Linecode=Line_25 
New Line.Consumer2_67 Bus1=2_684.1 Bus2=Consumer2_67.1 Length=0.21 units=km Linecode=Line_25 
New Line.Consumer2_68 Bus1=2_689.2 Bus2=Consumer2_68.1 Length=0.21 units=km Linecode=Line_25 
New Line.Consumer2_69 Bus1=2_694.3 Bus2=Consumer2_69.1 Length=0.21 units=km Linecode=Line_25 
New Line.Consumer2_70 Bus1=2_699.1 Bus2=Consumer2_70.1 Length=0.21 units=km Linecode=Line_25 
New Line.Consumer2_71 Bus1=2_704.2 Bus2=Consumer2_71.1 Length=0.21 units=km Linecode=Line_25 
New Line.Consumer2_72 Bus1=2_709.3 Bus2=Consumer2_72.1 Length=0.21 units=km Linecode=Line_25 
New Line.Consumer2_73 Bus1=2_714.1 Bus2=Consumer2_73.1 Length=0.21 units=km Linecode=Line_25 
New Line.Consumer2_74 Bus1=2_719.2 Bus2=Consumer2_74.1 Length=0.21 units=km Linecode=Line_25 
New Line.Consumer2_75 Bus1=2_724.3 Bus2=Consumer2_75.1 Length=0.21 units=km Linecode=Line_25 
New Line.Consumer2_76 Bus1=2_729.1 Bus2=Consumer2_76.1 Length=0.21 units=km Linecode=Line_25 
New Line.Consumer2_77 Bus1=2_734.2 Bus2=Consumer2_77.1 Length=0.21 units=km Linecode=Line_25 
New Line.Consumer2_78 Bus1=2_739.3 Bus2=Consumer2_78.1 Length=0.21 units=km Linecode=Line_25 
New Line.Consumer2_79 Bus1=2_744.1 Bus2=Consumer2_79.1 Length=0.21 units=km Linecode=Line_25 
New Line.Consumer2_80 Bus1=2_749.2 Bus2=Consumer2_80.1 Length=0.21 units=km Linecode=Line_25 
New Line.Consumer2_81 Bus1=2_754.3 Bus2=Consumer2_81.1 Length=0.21 units=km Linecode=Line_25 
New Line.Consumer2_82 Bus1=2_759.1 Bus2=Consumer2_82.1 Length=0.21 units=km Linecode=Line_25  
New Line.Consumer2_83 Bus1=2_764.2 Bus2=Consumer2_83.1 Length=0.21 units=km Linecode=Line_25 
New Line.Consumer2_84 Bus1=2_769.3 Bus2=Consumer2_84.1 Length=0.21 units=km Linecode=Line_25 

New Line.Consumer2_85 Bus1=2_797.2 Bus2=Consumer2_85.1 Length=0.21 units=km Linecode=Line_25 
New Line.Consumer2_86 Bus1=2_802.3 Bus2=Consumer2_86.1 Length=0.21 units=km Linecode=Line_25 
New Line.Consumer2_87 Bus1=2_807.1 Bus2=Consumer2_87.1 Length=0.21 units=km Linecode=Line_25 
New Line.Consumer2_88 Bus1=2_812.2 Bus2=Consumer2_88.1 Length=0.21 units=km Linecode=Line_25 
New Line.Consumer2_89 Bus1=2_817.3 Bus2=Consumer2_89.1 Length=0.21 units=km Linecode=Line_25 
New Line.Consumer2_90 Bus1=2_822.1 Bus2=Consumer2_90.1 Length=0.21 units=km Linecode=Line_25 
New Line.Consumer2_91 Bus1=2_827.2 Bus2=Consumer2_91.1 Length=0.21 units=km Linecode=Line_25 
New Line.Consumer2_92 Bus1=2_832.3 Bus2=Consumer2_92.1 Length=0.21 units=km Linecode=Line_25 
New Line.Consumer2_93 Bus1=2_837.1 Bus2=Consumer2_93.1 Length=0.21 units=km Linecode=Line_25 
New Line.Consumer2_94 Bus1=2_842.2 Bus2=Consumer2_94.1 Length=0.21 units=km Linecode=Line_25 
New Line.Consumer2_95 Bus1=2_847.3 Bus2=Consumer2_95.1 Length=0.21 units=km Linecode=Line_25 
New Line.Consumer2_96 Bus1=2_852.1 Bus2=Consumer2_96.1 Length=0.21 units=km Linecode=Line_25 
New Line.Consumer2_97 Bus1=2_857.2 Bus2=Consumer2_97.1 Length=0.21 units=km Linecode=Line_25 
New Line.Consumer2_98 Bus1=2_862.3 Bus2=Consumer2_98.1 Length=0.21 units=km Linecode=Line_25 
New Line.Consumer2_99 Bus1=2_867.1 Bus2=Consumer2_99.1 Length=0.21 units=km Linecode=Line_25 
New Line.Consumer2_100 Bus1=2_872.2 Bus2=Consumer2_100.1 Length=0.21 units=km Linecode=Line_25 
New Line.Consumer2_101 Bus1=2_877.3 Bus2=Consumer2_101.1 Length=0.21 units=km Linecode=Line_25 
New Line.Consumer2_102 Bus1=2_882.1 Bus2=Consumer2_102.1 Length=0.21 units=km Linecode=Line_25  
New Line.Consumer2_103 Bus1=2_887.2 Bus2=Consumer2_103.1 Length=0.21 units=km Linecode=Line_25 
New Line.Consumer2_104 Bus1=2_892.3 Bus2=Consumer2_104.1 Length=0.21 units=km Linecode=Line_25  
New Line.Consumer2_105 Bus1=2_897.2 Bus2=Consumer2_105.1 Length=0.21 units=km Linecode=Line_25 
New Line.Consumer2_106 Bus1=2_902.3 Bus2=Consumer2_106.1 Length=0.21 units=km Linecode=Line_25 
New Line.Consumer2_107 Bus1=2_907.1 Bus2=Consumer2_107.1 Length=0.21 units=km Linecode=Line_25 
New Line.Consumer2_108 Bus1=2_912.2 Bus2=Consumer2_108.1 Length=0.21 units=km Linecode=Line_25 
New Line.Consumer2_109 Bus1=2_917.3 Bus2=Consumer2_109.1 Length=0.21 units=km Linecode=Line_25 
New Line.Consumer2_110 Bus1=2_922.1 Bus2=Consumer2_110.1 Length=0.21 units=km Linecode=Line_25 
New Line.Consumer2_111 Bus1=2_927.2 Bus2=Consumer2_111.1 Length=0.21 units=km Linecode=Line_25 
New Line.Consumer2_112 Bus1=2_932.3 Bus2=Consumer2_112.1 Length=0.21 units=km Linecode=Line_25 
New Line.Consumer2_113 Bus1=2_937.1 Bus2=Consumer2_113.1 Length=0.21 units=km Linecode=Line_25 
New Line.Consumer2_114 Bus1=2_942.2 Bus2=Consumer2_114.1 Length=0.21 units=km Linecode=Line_25 
New Line.Consumer2_115 Bus1=2_947.3 Bus2=Consumer2_115.1 Length=0.21 units=km Linecode=Line_25 
New Line.Consumer2_116 Bus1=2_952.1 Bus2=Consumer2_116.1 Length=0.21 units=km Linecode=Line_25 
New Line.Consumer2_117 Bus1=2_957.2 Bus2=Consumer2_117.1 Length=0.21 units=km Linecode=Line_25



  
  
